Circuit: * Z:\mnt\CCD826BFD826A7A2\Documents\Dominik\projects\MPM\mpm-hardware\breakout-board-power-measurement\ltspice\capacitive-power-supply-3.asc

Warning: Multiple definitions of model "1n750" Type: Diode
Per .tran options, skipping operating point for transient analysis.
Heightened Def Con from 0.0171617 +++++++to 0.0171617
Heightened Def Con from 0.0171617 to 0.0171617
Heightened Def Con from 0.0171619 to 0.0171619
Heightened Def Con from 0.0171619 to 0.0171619
Heightened Def Con from 0.0171621 to 0.0171621
Heightened Def Con from 0.0171624 to 0.0171624
Heightened Def Con from 0.0171627 ++++++to 0.0171627
Heightened Def Con from 0.0171629 to 0.0171629
Heightened Def Con from 0.0171629 to 0.0171629
Heightened Def Con from 0.0171629 to 0.0171629
Heightened Def Con from 0.0171629 to 0.0171629
Heightened Def Con from 0.017163 to 0.017163
Heightened Def Con from 0.017163 to 0.017163
Heightened Def Con from 0.017163 to 0.017163
Heightened Def Con from 0.017163 to 0.017163
Heightened Def Con from 0.017163 to 0.017163
Heightened Def Con from 0.017163 +to 0.017163
Heightened Def Con from 0.017163 to 0.017163
Heightened Def Con from 0.017163 to 0.017163
Heightened Def Con from 0.017163 to 0.017163
Heightened Def Con from 0.017163 to 0.017163
Heightened Def Con from 0.0171632 to 0.0171633
Heightened Def Con from 0.0171633 to 0.0171633
Heightened Def Con from 0.0171633 to 0.0171633
Heightened Def Con from 0.0171633 to 0.0171633
Heightened Def Con from 0.0171635 to 0.0171635
Heightened Def Con from 0.0171635 +to 0.0171635
Heightened Def Con from 0.0171635 +to 0.0171635
Heightened Def Con from 0.0171635 to 0.0171635
Heightened Def Con from 0.0171635 to 0.0171635
Heightened Def Con from 0.0171635 ++to 0.0171635
Heightened Def Con from 0.0171635 to 0.0171635
Heightened Def Con from 0.0171635 to 0.0171635
Heightened Def Con from 0.0171635 to 0.0171635
Heightened Def Con from 0.0171635 to 0.0171635
Heightened Def Con from 0.0171635 to 0.0171635
Heightened Def Con from 0.0171635 to 0.0171635
Heightened Def Con from 0.0171635 to 0.0171635
Heightened Def Con from 0.0171636 to 0.0171636
Heightened Def Con from 0.0171636 to 0.0171636
Heightened Def Con from 0.0171636 to 0.0171636
Heightened Def Con from 0.0171636 to 0.0171636
Heightened Def Con from 0.0171636 to 0.0171636
Heightened Def Con from 0.0171636 +to 0.0171636
Heightened Def Con from 0.0171636 to 0.0171636
Heightened Def Con from 0.0171636 to 0.0171636
Heightened Def Con from 0.0171636 to 0.0171636
Heightened Def Con from 0.0171636 +to 0.0171636
Heightened Def Con from 0.0171636 to 0.0171636
Heightened Def Con from 0.0171637 to 0.0171637
Heightened Def Con from 0.0171637 to 0.0171637
Heightened Def Con from 0.0171637 to 0.0171637
Heightened Def Con from 0.0171637 to 0.0171637
Heightened Def Con from 0.0171637 to 0.0171637
Heightened Def Con from 0.0171637 +++to 0.0171637
Heightened Def Con from 0.0171637 to 0.0171637
Heightened Def Con from 0.0171637 to 0.0171637
Heightened Def Con from 0.0171637 to 0.0171637
Heightened Def Con from 0.0171637 to 0.0171637
Heightened Def Con from 0.0171637 to 0.0171637
Heightened Def Con from 0.0171637 ++to 0.0171637
Heightened Def Con from 0.0171637 to 0.0171637
Heightened Def Con from 0.0171637 to 0.0171637
Heightened Def Con from 0.0171637 +to 0.0171637
Heightened Def Con from 0.0171637 to 0.0171637
Heightened Def Con from 0.0171637 to 0.0171638
Heightened Def Con from 0.0171638 +to 0.0171638
Heightened Def Con from 0.0171638 to 0.0171638
Heightened Def Con from 0.0171638 ++to 0.0171638
Heightened Def Con from 0.0171638 +++to 0.0171638
Heightened Def Con from 0.0171638 to 0.0171638
Heightened Def Con from 0.0171638 to 0.0171638
Heightened Def Con from 0.0171638 to 0.0171638
Heightened Def Con from 0.0171638 to 0.0171638
Heightened Def Con from 0.0171638 to 0.0171638
Heightened Def Con from 0.0171638 to 0.0171638
Heightened Def Con from 0.0171638 +to 0.0171638
Heightened Def Con from 0.0171638 to 0.0171638
Heightened Def Con from 0.0171638 to 0.0171638
Heightened Def Con from 0.0171638 to 0.0171638
Heightened Def Con from 0.0171639 +to 0.0171639
Heightened Def Con from 0.0171639 to 0.0171639
Heightened Def Con from 0.0171639 to 0.0171639
Heightened Def Con from 0.0171639 to 0.0171639
Heightened Def Con from 0.0171639 +++to 0.0171639
Heightened Def Con from 0.0171639 to 0.0171639
Heightened Def Con from 0.0171639 to 0.0171639
Heightened Def Con from 0.0171639 to 0.0171639
Heightened Def Con from 0.0171639 to 0.0171639
Heightened Def Con from 0.0171639 to 0.0171639
Heightened Def Con from 0.0171639 to 0.0171639
Heightened Def Con from 0.0171639 to 0.0171639
Heightened Def Con from 0.0171639 to 0.0171639
Heightened Def Con from 0.0171639 to 0.0171639
Heightened Def Con from 0.0171639 +to 0.0171639
Heightened Def Con from 0.017164 to 0.017164
Heightened Def Con from 0.017164 to 0.017164
Heightened Def Con from 0.017164 to 0.017164
Heightened Def Con from 0.017164 to 0.017164
Heightened Def Con from 0.017164 +to 0.017164
Heightened Def Con from 0.017164 to 0.017164
Heightened Def Con from 0.017164 +to 0.017164
Heightened Def Con from 0.017164 to 0.017164
Heightened Def Con from 0.017164 to 0.017164
Heightened Def Con from 0.017164 to 0.017164
Heightened Def Con from 0.017164 +to 0.017164
Heightened Def Con from 0.017164 to 0.017164
Heightened Def Con from 0.017164 to 0.017164
Heightened Def Con from 0.017164 to 0.017164
Heightened Def Con from 0.017164 +to 0.017164
Heightened Def Con from 0.0171641 ++to 0.0171641
Heightened Def Con from 0.0171641 ++to 0.0171641
Heightened Def Con from 0.0171641 to 0.0171641
Heightened Def Con from 0.0171641 to 0.0171641
Heightened Def Con from 0.0171641 to 0.0171641
Heightened Def Con from 0.0171641 +to 0.0171641
Heightened Def Con from 0.0171641 to 0.0171641
Heightened Def Con from 0.0171641 to 0.0171641
Heightened Def Con from 0.0171641 to 0.0171641
Heightened Def Con from 0.0171641 to 0.0171641
Heightened Def Con from 0.0171641 +to 0.0171641
Heightened Def Con from 0.0171641 +to 0.0171641
Heightened Def Con from 0.0171641 to 0.0171641
Heightened Def Con from 0.0171641 to 0.0171641
Heightened Def Con from 0.0171641 to 0.0171641
Heightened Def Con from 0.0171641 to 0.0171641
Heightened Def Con from 0.0171642 to 0.0171642
Heightened Def Con from 0.0171642 ++to 0.0171642
Heightened Def Con from 0.0171642 to 0.0171642
Heightened Def Con from 0.0171642 to 0.0171642
Heightened Def Con from 0.0171642 to 0.0171642
Heightened Def Con from 0.0171642 to 0.0171642
Heightened Def Con from 0.0171642 to 0.0171642
Heightened Def Con from 0.0171642 to 0.0171642
Heightened Def Con from 0.0171642 +to 0.0171642
Heightened Def Con from 0.0171642 to 0.0171642
Heightened Def Con from 0.0171642 to 0.0171642
Heightened Def Con from 0.0171642 to 0.0171642
Heightened Def Con from 0.0171642 to 0.0171642
Heightened Def Con from 0.0171642 to 0.0171642
Heightened Def Con from 0.0171643 to 0.0171643
Heightened Def Con from 0.0171643 to 0.0171643
Heightened Def Con from 0.0171643 to 0.0171643
Heightened Def Con from 0.0171643 ++to 0.0171643
Heightened Def Con from 0.0171643 to 0.0171643
Heightened Def Con from 0.0171643 to 0.0171643
Heightened Def Con from 0.0171643 to 0.0171643
Heightened Def Con from 0.0171643 +to 0.0171643
Heightened Def Con from 0.0171643 to 0.0171643
Heightened Def Con from 0.0171643 to 0.0171643
Heightened Def Con from 0.0171643 to 0.0171643
Heightened Def Con from 0.0171643 +to 0.0171643
Heightened Def Con from 0.0171643 ++to 0.0171643
Heightened Def Con from 0.0171643 to 0.0171643
Heightened Def Con from 0.0171643 to 0.0171643
Heightened Def Con from 0.0171643 ++++to 0.0171644
Heightened Def Con from 0.0171644 to 0.0171644
Heightened Def Con from 0.0171644 to 0.0171644
Heightened Def Con from 0.0171644 to 0.0171644
Heightened Def Con from 0.0171644 to 0.0171644
Heightened Def Con from 0.0171644 to 0.0171644
Heightened Def Con from 0.0171644 to 0.0171644
Heightened Def Con from 0.0171644 to 0.0171644
Heightened Def Con from 0.0171644 to 0.0171644
Heightened Def Con from 0.0171644 to 0.0171644
Heightened Def Con from 0.0171644 to 0.0171644
Heightened Def Con from 0.0171644 to 0.0171644
Heightened Def Con from 0.0171644 to 0.0171644
Heightened Def Con from 0.0171644 to 0.0171644
Heightened Def Con from 0.0171644 to 0.0171644
Heightened Def Con from 0.0171645 +to 0.0171645
Heightened Def Con from 0.0171645 +to 0.0171645
Heightened Def Con from 0.0171645 to 0.0171645
Heightened Def Con from 0.0171645 +to 0.0171645
Heightened Def Con from 0.0171645 +to 0.0171645
Heightened Def Con from 0.0171645 to 0.0171645
Heightened Def Con from 0.0171645 to 0.0171645
Heightened Def Con from 0.0171645 to 0.0171645
Heightened Def Con from 0.0171645 to 0.0171645
Heightened Def Con from 0.0171645 to 0.0171645
Heightened Def Con from 0.0171645 to 0.0171645
Heightened Def Con from 0.0171645 to 0.0171645
Heightened Def Con from 0.0171645 to 0.0171645
Heightened Def Con from 0.0171645 ++to 0.0171645
Heightened Def Con from 0.0171645 to 0.0171645
Heightened Def Con from 0.0171645 to 0.0171645
Heightened Def Con from 0.0171646 to 0.0171646
Heightened Def Con from 0.0171646 to 0.0171646
Heightened Def Con from 0.0171646 to 0.0171646
Heightened Def Con from 0.0171646 to 0.0171646
Heightened Def Con from 0.0171646 to 0.0171646
Heightened Def Con from 0.0171646 to 0.0171646
Heightened Def Con from 0.0171646 to 0.0171646
Heightened Def Con from 0.0171646 to 0.0171646
Heightened Def Con from 0.0171646 +to 0.0171646
Heightened Def Con from 0.0171646 to 0.0171646
Heightened Def Con from 0.0171646 to 0.0171646
Heightened Def Con from 0.0171646 to 0.0171646
Heightened Def Con from 0.0171646 to 0.0171646
Heightened Def Con from 0.0171646 to 0.0171646
Heightened Def Con from 0.0171646 to 0.0171646
Heightened Def Con from 0.0171646 to 0.0171646
Heightened Def Con from 0.0171646 +to 0.0171646
Heightened Def Con from 0.0171646 to 0.0171647
Heightened Def Con from 0.0171647 to 0.0171647
Heightened Def Con from 0.0171647 to 0.0171647
Heightened Def Con from 0.0171647 to 0.0171647
Heightened Def Con from 0.0171647 +to 0.0171647
Heightened Def Con from 0.0171647 to 0.0171647
Heightened Def Con from 0.0171647 to 0.0171647
Heightened Def Con from 0.0171647 to 0.0171647
Heightened Def Con from 0.0171647 ++to 0.0171647
Heightened Def Con from 0.0171647 +to 0.0171647
Heightened Def Con from 0.0171647 ++to 0.0171647
Heightened Def Con from 0.0171647 to 0.0171647
Heightened Def Con from 0.0171647 to 0.0171647
Heightened Def Con from 0.0171647 to 0.0171647
Heightened Def Con from 0.0171647 +to 0.0171647
Heightened Def Con from 0.0171648 to 0.0171648
Heightened Def Con from 0.0171648 +to 0.0171648
Heightened Def Con from 0.0171648 to 0.0171648
Heightened Def Con from 0.0171648 to 0.0171648
Heightened Def Con from 0.0171648 to 0.0171648
Heightened Def Con from 0.0171648 to 0.0171648
Heightened Def Con from 0.0171648 to 0.0171648
Heightened Def Con from 0.0171648 to 0.0171648
Heightened Def Con from 0.0171648 +to 0.0171648
Heightened Def Con from 0.0171648 to 0.0171648
Heightened Def Con from 0.0171648 +to 0.0171648
Heightened Def Con from 0.0171648 to 0.0171648
Heightened Def Con from 0.0171648 to 0.0171648
Heightened Def Con from 0.0171648 to 0.0171648
Heightened Def Con from 0.0171648 +to 0.0171648
Heightened Def Con from 0.0171648 ++to 0.0171648
Heightened Def Con from 0.0171648 to 0.0171648
Heightened Def Con from 0.0171649 to 0.0171649
Heightened Def Con from 0.0171649 to 0.0171649
Heightened Def Con from 0.0171649 to 0.0171649
Heightened Def Con from 0.0171649 to 0.0171649
Heightened Def Con from 0.0171649 to 0.0171649
Heightened Def Con from 0.0171649 to 0.0171649
Heightened Def Con from 0.0171649 to 0.0171649
Heightened Def Con from 0.0171649 +to 0.0171649
Heightened Def Con from 0.0171649 to 0.0171649
Heightened Def Con from 0.0171649 to 0.0171649
Heightened Def Con from 0.0171649 to 0.0171649
Heightened Def Con from 0.0171649 to 0.0171649
Heightened Def Con from 0.0171649 to 0.0171649
Heightened Def Con from 0.0171649 to 0.0171649
Heightened Def Con from 0.017165 to 0.017165
Heightened Def Con from 0.017165 to 0.017165
Heightened Def Con from 0.017165 +to 0.017165
Heightened Def Con from 0.017165 to 0.017165
Heightened Def Con from 0.017165 to 0.017165
Heightened Def Con from 0.017165 to 0.017165
Heightened Def Con from 0.017165 to 0.017165
Heightened Def Con from 0.017165 to 0.017165
Heightened Def Con from 0.017165 ++to 0.017165
Heightened Def Con from 0.017165 to 0.017165
Heightened Def Con from 0.017165 +to 0.017165
Heightened Def Con from 0.017165 to 0.017165
Heightened Def Con from 0.017165 to 0.017165
Heightened Def Con from 0.017165 to 0.017165
Heightened Def Con from 0.017165 to 0.017165
Heightened Def Con from 0.017165 +++to 0.017165
Heightened Def Con from 0.0171651 to 0.0171651
Heightened Def Con from 0.0171651 to 0.0171651
Heightened Def Con from 0.0171651 to 0.0171651
Heightened Def Con from 0.0171651 to 0.0171651
Heightened Def Con from 0.0171651 to 0.0171651
Heightened Def Con from 0.0171651 to 0.0171651
Heightened Def Con from 0.0171651 to 0.0171651
Heightened Def Con from 0.0171651 to 0.0171651
Heightened Def Con from 0.0171651 +to 0.0171651
Heightened Def Con from 0.0171651 +to 0.0171651
Heightened Def Con from 0.0171651 to 0.0171651
Heightened Def Con from 0.0171651 to 0.0171651
Heightened Def Con from 0.0171651 to 0.0171651
Heightened Def Con from 0.0171651 to 0.0171651
Heightened Def Con from 0.0171651 +to 0.0171651
Heightened Def Con from 0.0171652 to 0.0171652
Heightened Def Con from 0.0171652 to 0.0171652
Heightened Def Con from 0.0171652 to 0.0171652
Heightened Def Con from 0.0171652 to 0.0171652
Heightened Def Con from 0.0171652 to 0.0171652
Heightened Def Con from 0.0171652 ++to 0.0171652
Heightened Def Con from 0.0171652 to 0.0171652
Heightened Def Con from 0.0171652 to 0.0171652
Heightened Def Con from 0.0171652 +to 0.0171652
Heightened Def Con from 0.0171652 to 0.0171652
Heightened Def Con from 0.0171652 to 0.0171652
Heightened Def Con from 0.0171652 +to 0.0171652
Heightened Def Con from 0.0171652 to 0.0171652
Heightened Def Con from 0.0171652 to 0.0171652
Heightened Def Con from 0.0171652 to 0.0171652
Heightened Def Con from 0.0171652 to 0.0171652
Heightened Def Con from 0.0171653 to 0.0171653
Heightened Def Con from 0.0171653 to 0.0171653
Heightened Def Con from 0.0171653 to 0.0171653
Heightened Def Con from 0.0171653 +++to 0.0171653
Heightened Def Con from 0.0171653 to 0.0171653
Heightened Def Con from 0.0171653 to 0.0171653
Heightened Def Con from 0.0171653 to 0.0171653
Heightened Def Con from 0.0171653 to 0.0171653
Heightened Def Con from 0.0171653 to 0.0171653
Heightened Def Con from 0.0171653 to 0.0171653
Heightened Def Con from 0.0171653 to 0.0171653
Heightened Def Con from 0.0171653 to 0.0171653
Heightened Def Con from 0.0171653 to 0.0171653
Heightened Def Con from 0.0171653 to 0.0171653
Heightened Def Con from 0.0171653 to 0.0171653
Heightened Def Con from 0.0171653 to 0.0171653
Heightened Def Con from 0.0171653 +to 0.0171653
Heightened Def Con from 0.0171654 to 0.0171654
Heightened Def Con from 0.0171654 to 0.0171654
Heightened Def Con from 0.0171654 to 0.0171654
Heightened Def Con from 0.0171654 to 0.0171654
Heightened Def Con from 0.0171654 +to 0.0171654
Heightened Def Con from 0.0171654 to 0.0171654
Heightened Def Con from 0.0171654 to 0.0171654
Heightened Def Con from 0.0171654 to 0.0171654
Heightened Def Con from 0.0171654 to 0.0171654
Heightened Def Con from 0.0171654 to 0.0171654
Heightened Def Con from 0.0171654 to 0.0171654
Heightened Def Con from 0.0171654 to 0.0171654
Heightened Def Con from 0.0171654 to 0.0171654
Heightened Def Con from 0.0171654 to 0.0171654
Heightened Def Con from 0.0171654 to 0.0171654
Heightened Def Con from 0.0171655 to 0.0171655
Heightened Def Con from 0.0171655 to 0.0171655
Heightened Def Con from 0.0171655 to 0.0171655
Heightened Def Con from 0.0171655 +to 0.0171655
Heightened Def Con from 0.0171655 to 0.0171655
Heightened Def Con from 0.0171655 to 0.0171655
Heightened Def Con from 0.0171655 to 0.0171655
Heightened Def Con from 0.0171655 to 0.0171655
Heightened Def Con from 0.0171655 to 0.0171655
Heightened Def Con from 0.0171655 to 0.0171655
Heightened Def Con from 0.0171655 to 0.0171655
Heightened Def Con from 0.0171655 to 0.0171655
Heightened Def Con from 0.0171655 to 0.0171655
Heightened Def Con from 0.0171655 +to 0.0171655
Heightened Def Con from 0.0171655 to 0.0171655
Heightened Def Con from 0.0171655 to 0.0171655
Heightened Def Con from 0.0171655 to 0.0171655
Heightened Def Con from 0.0171656 to 0.0171656
Heightened Def Con from 0.0171656 to 0.0171656
Heightened Def Con from 0.0171656 to 0.0171656
Heightened Def Con from 0.0171656 to 0.0171656
Heightened Def Con from 0.0171656 to 0.0171656
Heightened Def Con from 0.0171656 +to 0.0171656
Heightened Def Con from 0.0171656 to 0.0171656
Heightened Def Con from 0.0171656 to 0.0171656
Heightened Def Con from 0.0171656 to 0.0171656
Heightened Def Con from 0.0171656 to 0.0171656
Heightened Def Con from 0.0171656 to 0.0171656
Heightened Def Con from 0.0171656 to 0.0171656
Heightened Def Con from 0.0171656 to 0.0171656
Heightened Def Con from 0.0171656 +to 0.0171656
Heightened Def Con from 0.0171656 to 0.0171656
Heightened Def Con from 0.0171657 +to 0.0171657
Heightened Def Con from 0.0171657 to 0.0171657
Heightened Def Con from 0.0171657 to 0.0171657
Heightened Def Con from 0.0171657 to 0.0171657
Heightened Def Con from 0.0171657 +to 0.0171657
Heightened Def Con from 0.0171657 ++to 0.0171657
Heightened Def Con from 0.0171657 to 0.0171657
Heightened Def Con from 0.0171657 to 0.0171657
Heightened Def Con from 0.0171657 +to 0.0171657
Heightened Def Con from 0.0171657 +to 0.0171657
Heightened Def Con from 0.0171657 to 0.0171657
Heightened Def Con from 0.0171657 to 0.0171657
Heightened Def Con from 0.0171657 to 0.0171657
Heightened Def Con from 0.0171657 to 0.0171657
Heightened Def Con from 0.0171657 to 0.0171657
Heightened Def Con from 0.0171658 to 0.0171658
Heightened Def Con from 0.0171658 to 0.0171658
Heightened Def Con from 0.0171658 to 0.0171658
Heightened Def Con from 0.0171658 to 0.0171658
Heightened Def Con from 0.0171658 to 0.0171658
Heightened Def Con from 0.0171658 to 0.0171658
Heightened Def Con from 0.0171658 to 0.0171658
Heightened Def Con from 0.0171658 to 0.0171658
Heightened Def Con from 0.0171658 to 0.0171658
Heightened Def Con from 0.0171658 to 0.0171658
Heightened Def Con from 0.0171658 to 0.0171658
Heightened Def Con from 0.0171658 to 0.0171658
Heightened Def Con from 0.0171658 +to 0.0171658
Heightened Def Con from 0.0171658 to 0.0171658
Heightened Def Con from 0.0171658 to 0.0171658
Heightened Def Con from 0.0171658 to 0.0171658
Heightened Def Con from 0.0171658 to 0.0171658
Heightened Def Con from 0.0171659 to 0.0171659
Heightened Def Con from 0.0171659 to 0.0171659
Heightened Def Con from 0.0171659 to 0.0171659
Heightened Def Con from 0.0171659 to 0.0171659
Heightened Def Con from 0.0171659 to 0.0171659
Heightened Def Con from 0.0171659 to 0.0171659
Heightened Def Con from 0.0171659 to 0.0171659
Heightened Def Con from 0.0171659 to 0.0171659
Heightened Def Con from 0.0171659 to 0.0171659
Heightened Def Con from 0.0171659 +to 0.0171659
Heightened Def Con from 0.0171659 to 0.0171659
Heightened Def Con from 0.0171659 to 0.0171659
Heightened Def Con from 0.0171659 to 0.0171659
Heightened Def Con from 0.0171659 to 0.0171659
Heightened Def Con from 0.0171659 to 0.0171659
Heightened Def Con from 0.017166 to 0.017166
Heightened Def Con from 0.017166 to 0.017166
Heightened Def Con from 0.017166 to 0.017166
Heightened Def Con from 0.017166 to 0.017166
Heightened Def Con from 0.017166 ++to 0.017166
Heightened Def Con from 0.017166 to 0.017166
Heightened Def Con from 0.017166 to 0.017166
Heightened Def Con from 0.017166 to 0.017166
Heightened Def Con from 0.017166 to 0.017166
Heightened Def Con from 0.017166 +to 0.017166
Heightened Def Con from 0.017166 to 0.017166
Heightened Def Con from 0.017166 to 0.017166
Heightened Def Con from 0.017166 +to 0.017166
Heightened Def Con from 0.017166 to 0.017166
Heightened Def Con from 0.017166 to 0.017166
Heightened Def Con from 0.017166 to 0.017166
Heightened Def Con from 0.0171661 to 0.0171661
Heightened Def Con from 0.0171661 to 0.0171661
Heightened Def Con from 0.0171661 to 0.0171661
Heightened Def Con from 0.0171661 to 0.0171661
Heightened Def Con from 0.0171661 to 0.0171661
Heightened Def Con from 0.0171661 to 0.0171661
Heightened Def Con from 0.0171661 to 0.0171661
Heightened Def Con from 0.0171661 to 0.0171661
Heightened Def Con from 0.0171661 to 0.0171661
Heightened Def Con from 0.0171661 to 0.0171661
Heightened Def Con from 0.0171661 to 0.0171661
Heightened Def Con from 0.0171661 to 0.0171661
Heightened Def Con from 0.0171661 to 0.0171661
Heightened Def Con from 0.0171661 to 0.0171661
Heightened Def Con from 0.0171661 to 0.0171661
Heightened Def Con from 0.0171662 to 0.0171662
Heightened Def Con from 0.0171662 to 0.0171662
Heightened Def Con from 0.0171662 to 0.0171662
Heightened Def Con from 0.0171662 to 0.0171662
Heightened Def Con from 0.0171662 +to 0.0171662
Heightened Def Con from 0.0171662 +to 0.0171662
Heightened Def Con from 0.0171662 +to 0.0171662
Heightened Def Con from 0.0171662 to 0.0171662
Heightened Def Con from 0.0171662 to 0.0171662
Heightened Def Con from 0.0171662 to 0.0171662
Heightened Def Con from 0.0171662 to 0.0171662
Heightened Def Con from 0.0171662 to 0.0171662
Heightened Def Con from 0.0171662 to 0.0171662
Heightened Def Con from 0.0171662 to 0.0171662
Heightened Def Con from 0.0171662 to 0.0171662
Heightened Def Con from 0.0171662 ++to 0.0171662
Heightened Def Con from 0.0171663 ++to 0.0171663
Heightened Def Con from 0.0171663 to 0.0171663
Heightened Def Con from 0.0171663 to 0.0171663
Heightened Def Con from 0.0171663 to 0.0171663
Heightened Def Con from 0.0171663 to 0.0171663
Heightened Def Con from 0.0171663 to 0.0171663
Heightened Def Con from 0.0171663 +to 0.0171663
Heightened Def Con from 0.0171663 to 0.0171663
Heightened Def Con from 0.0171663 to 0.0171663
Heightened Def Con from 0.0171663 to 0.0171663
Heightened Def Con from 0.0171663 to 0.0171663
Heightened Def Con from 0.0171663 to 0.0171663
Heightened Def Con from 0.0171663 to 0.0171663
Heightened Def Con from 0.0171663 to 0.0171663
Heightened Def Con from 0.0171663 to 0.0171663
Heightened Def Con from 0.0171664 to 0.0171664
Heightened Def Con from 0.0171664 to 0.0171664
Heightened Def Con from 0.0171664 to 0.0171664
Heightened Def Con from 0.0171664 to 0.0171664
Heightened Def Con from 0.0171664 to 0.0171664
Heightened Def Con from 0.0171664 to 0.0171664
Heightened Def Con from 0.0171664 ++to 0.0171664
Heightened Def Con from 0.0171664 to 0.0171664
Heightened Def Con from 0.0171664 ++++to 0.0171664
Heightened Def Con from 0.0171664 to 0.0171664
Heightened Def Con from 0.0171664 to 0.0171664
Heightened Def Con from 0.0171664 +to 0.0171664
Heightened Def Con from 0.0171664 to 0.0171664
Heightened Def Con from 0.0171664 to 0.0171664
Heightened Def Con from 0.0171664 to 0.0171664
Heightened Def Con from 0.0171665 ++to 0.0171665
Heightened Def Con from 0.0171665 to 0.0171665
Heightened Def Con from 0.0171665 to 0.0171665
Heightened Def Con from 0.0171665 to 0.0171665
Heightened Def Con from 0.0171665 to 0.0171665
Heightened Def Con from 0.0171665 to 0.0171665
Heightened Def Con from 0.0171665 to 0.0171665
Heightened Def Con from 0.0171665 to 0.0171665
Heightened Def Con from 0.0171665 to 0.0171665
Heightened Def Con from 0.0171665 to 0.0171665
Heightened Def Con from 0.0171665 to 0.0171665
Heightened Def Con from 0.0171665 to 0.0171665
Heightened Def Con from 0.0171665 to 0.0171665
Heightened Def Con from 0.0171665 +to 0.0171665
Heightened Def Con from 0.0171665 to 0.0171665
Heightened Def Con from 0.0171665 to 0.0171665
Heightened Def Con from 0.0171666 to 0.0171666
Heightened Def Con from 0.0171666 to 0.0171666
Heightened Def Con from 0.0171666 to 0.0171666
Heightened Def Con from 0.0171666 to 0.0171666
Heightened Def Con from 0.0171666 to 0.0171666
Heightened Def Con from 0.0171666 to 0.0171666
Heightened Def Con from 0.0171666 ++to 0.0171666
Heightened Def Con from 0.0171666 to 0.0171666
Heightened Def Con from 0.0171666 to 0.0171666
Heightened Def Con from 0.0171666 +to 0.0171666
Heightened Def Con from 0.0171666 to 0.0171666
Heightened Def Con from 0.0171666 to 0.0171666
Heightened Def Con from 0.0171666 to 0.0171666
Heightened Def Con from 0.0171666 to 0.0171666
Heightened Def Con from 0.0171667 to 0.0171667
Heightened Def Con from 0.0171667 to 0.0171667
Heightened Def Con from 0.0171667 to 0.0171667
Heightened Def Con from 0.0171667 to 0.0171667
Heightened Def Con from 0.0171667 to 0.0171667
Heightened Def Con from 0.0171667 to 0.0171667
Heightened Def Con from 0.0171667 to 0.0171667
Heightened Def Con from 0.0171667 to 0.0171667
Heightened Def Con from 0.0171667 to 0.0171667
Heightened Def Con from 0.0171667 to 0.0171667
Heightened Def Con from 0.0171667 +to 0.0171667
Heightened Def Con from 0.0171667 ++to 0.0171667
Heightened Def Con from 0.0171667 to 0.0171667
Heightened Def Con from 0.0171667 to 0.0171667
Heightened Def Con from 0.0171668 to 0.0171668
Heightened Def Con from 0.0171668 to 0.0171668
Heightened Def Con from 0.0171668 to 0.0171668
Heightened Def Con from 0.0171668 to 0.0171668
Heightened Def Con from 0.0171668 to 0.0171668
Heightened Def Con from 0.0171668 to 0.0171668
Heightened Def Con from 0.0171668 +to 0.0171668
Heightened Def Con from 0.0171668 to 0.0171668
Heightened Def Con from 0.0171668 ++to 0.0171668
Heightened Def Con from 0.0171668 +to 0.0171668
Heightened Def Con from 0.0171668 to 0.0171668
Heightened Def Con from 0.0171668 to 0.0171668
Heightened Def Con from 0.0171668 to 0.0171668
Heightened Def Con from 0.0171668 to 0.0171668
Heightened Def Con from 0.0171668 to 0.0171668
Heightened Def Con from 0.0171668 to 0.0171668
Heightened Def Con from 0.0171669 +to 0.0171669
Heightened Def Con from 0.0171669 to 0.0171669
Heightened Def Con from 0.0171669 to 0.0171669
Heightened Def Con from 0.0171669 to 0.0171669
Heightened Def Con from 0.0171669 to 0.0171669
Heightened Def Con from 0.0171669 to 0.0171669
Heightened Def Con from 0.0171669 to 0.0171669
Heightened Def Con from 0.0171669 to 0.0171669
Heightened Def Con from 0.0171669 to 0.0171669
Heightened Def Con from 0.0171669 +to 0.0171669
Heightened Def Con from 0.0171669 +to 0.0171669
Heightened Def Con from 0.0171669 to 0.0171669
Heightened Def Con from 0.0171669 to 0.0171669
Heightened Def Con from 0.0171669 to 0.0171669
Heightened Def Con from 0.0171669 to 0.0171669
Heightened Def Con from 0.0171669 to 0.0171669
Heightened Def Con from 0.017167 to 0.017167
Heightened Def Con from 0.017167 to 0.017167
Heightened Def Con from 0.017167 to 0.017167
Heightened Def Con from 0.017167 to 0.017167
Heightened Def Con from 0.017167 to 0.017167
Heightened Def Con from 0.017167 to 0.017167
Heightened Def Con from 0.017167 to 0.017167
Heightened Def Con from 0.017167 to 0.017167
Heightened Def Con from 0.017167 +to 0.017167
Heightened Def Con from 0.017167 to 0.017167
Heightened Def Con from 0.017167 +to 0.017167
Heightened Def Con from 0.017167 to 0.017167
Heightened Def Con from 0.017167 to 0.017167
Heightened Def Con from 0.017167 to 0.017167
Heightened Def Con from 0.017167 to 0.017167
Heightened Def Con from 0.0171671 to 0.0171671
Heightened Def Con from 0.0171671 to 0.0171671
Heightened Def Con from 0.0171671 to 0.0171671
Heightened Def Con from 0.0171671 to 0.0171671
Heightened Def Con from 0.0171671 to 0.0171671
Heightened Def Con from 0.0171671 ++to 0.0171671
Heightened Def Con from 0.0171671 to 0.0171671
Heightened Def Con from 0.0171671 to 0.0171671
Heightened Def Con from 0.0171671 to 0.0171671
Heightened Def Con from 0.0171671 to 0.0171671
Heightened Def Con from 0.0171671 to 0.0171671
Heightened Def Con from 0.0171671 to 0.0171671
Heightened Def Con from 0.0171671 +to 0.0171671
Heightened Def Con from 0.0171671 to 0.0171671
Heightened Def Con from 0.0171671 to 0.0171671
Heightened Def Con from 0.0171672 to 0.0171672
Heightened Def Con from 0.0171672 to 0.0171672
Heightened Def Con from 0.0171672 to 0.0171672
Heightened Def Con from 0.0171672 to 0.0171672
Heightened Def Con from 0.0171672 to 0.0171672
Heightened Def Con from 0.0171672 to 0.0171672
Heightened Def Con from 0.0171672 to 0.0171672
Heightened Def Con from 0.0171672 to 0.0171672
Heightened Def Con from 0.0171672 to 0.0171672
Heightened Def Con from 0.0171672 to 0.0171672
Heightened Def Con from 0.0171672 to 0.0171672
Heightened Def Con from 0.0171672 to 0.0171672
Heightened Def Con from 0.0171672 to 0.0171672
Heightened Def Con from 0.0171672 to 0.0171672
Heightened Def Con from 0.0171672 to 0.0171672
Heightened Def Con from 0.0171672 +++to 0.0171673
Heightened Def Con from 0.0171673 +to 0.0171673
Heightened Def Con from 0.0171673 to 0.0171673
Heightened Def Con from 0.0171673 to 0.0171673
Heightened Def Con from 0.0171673 +to 0.0171673
Heightened Def Con from 0.0171673 to 0.0171673
Heightened Def Con from 0.0171673 ++to 0.0171673
Heightened Def Con from 0.0171673 to 0.0171673
Heightened Def Con from 0.0171673 to 0.0171673
Heightened Def Con from 0.0171673 to 0.0171673
Heightened Def Con from 0.0171673 to 0.0171673
Heightened Def Con from 0.0171673 to 0.0171673
Heightened Def Con from 0.0171673 to 0.0171673
Heightened Def Con from 0.0171673 +to 0.0171673
Heightened Def Con from 0.0171673 +to 0.0171673
Heightened Def Con from 0.0171673 to 0.0171673
Heightened Def Con from 0.0171673 to 0.0171674
Heightened Def Con from 0.0171674 +to 0.0171674
Heightened Def Con from 0.0171674 +to 0.0171674
Heightened Def Con from 0.0171674 to 0.0171674
Heightened Def Con from 0.0171674 ++to 0.0171674
Heightened Def Con from 0.0171674 to 0.0171674
Heightened Def Con from 0.0171674 to 0.0171674
Heightened Def Con from 0.0171674 +to 0.0171674
Heightened Def Con from 0.0171674 to 0.0171674
Heightened Def Con from 0.0171674 to 0.0171674
Heightened Def Con from 0.0171674 +to 0.0171674
Heightened Def Con from 0.0171674 to 0.0171674
Heightened Def Con from 0.0171674 to 0.0171674
Heightened Def Con from 0.0171674 to 0.0171674
Heightened Def Con from 0.0171674 to 0.0171674
Heightened Def Con from 0.0171674 ++to 0.0171674
Heightened Def Con from 0.0171675 to 0.0171675
Heightened Def Con from 0.0171675 to 0.0171675
Heightened Def Con from 0.0171675 to 0.0171675
Heightened Def Con from 0.0171675 to 0.0171675
Heightened Def Con from 0.0171675 to 0.0171675
Heightened Def Con from 0.0171675 to 0.0171675
Heightened Def Con from 0.0171675 to 0.0171675
Heightened Def Con from 0.0171675 ++to 0.0171675
Heightened Def Con from 0.0171675 to 0.0171675
Heightened Def Con from 0.0171675 to 0.0171675
Heightened Def Con from 0.0171675 to 0.0171675
Heightened Def Con from 0.0171675 to 0.0171675
Heightened Def Con from 0.0171675 +++to 0.0171675
Heightened Def Con from 0.0171675 +to 0.0171675
Heightened Def Con from 0.0171675 to 0.0171675
Heightened Def Con from 0.0171676 to 0.0171676
Heightened Def Con from 0.0171676 to 0.0171676
Heightened Def Con from 0.0171676 +to 0.0171676
Heightened Def Con from 0.0171676 to 0.0171676
Heightened Def Con from 0.0171676 to 0.0171676
Heightened Def Con from 0.0171676 to 0.0171676
Heightened Def Con from 0.0171676 to 0.0171676
Heightened Def Con from 0.0171676 ++to 0.0171676
Heightened Def Con from 0.0171676 to 0.0171676
Heightened Def Con from 0.0171676 to 0.0171676
Heightened Def Con from 0.0171676 to 0.0171676
Heightened Def Con from 0.0171676 to 0.0171676
Heightened Def Con from 0.0171676 to 0.0171676
Heightened Def Con from 0.0171676 +to 0.0171676
Heightened Def Con from 0.0171676 to 0.0171676
Heightened Def Con from 0.0171677 +to 0.0171677
Heightened Def Con from 0.0171677 +to 0.0171677
Heightened Def Con from 0.0171677 +to 0.0171677
Heightened Def Con from 0.0171677 +to 0.0171677
Heightened Def Con from 0.0171677 to 0.0171677
Heightened Def Con from 0.0171677 to 0.0171677
Heightened Def Con from 0.0171677 to 0.0171677
Heightened Def Con from 0.0171677 ++++to 0.0171677
Heightened Def Con from 0.0171677 +to 0.0171677
Heightened Def Con from 0.0171677 to 0.0171677
Heightened Def Con from 0.0171677 to 0.0171677
Heightened Def Con from 0.0171677 to 0.0171677
Heightened Def Con from 0.0171677 +to 0.0171677
Heightened Def Con from 0.0171677 +to 0.0171677
Heightened Def Con from 0.0171677 to 0.0171677
Heightened Def Con from 0.0171677 to 0.0171677
Heightened Def Con from 0.0171678 to 0.0171678
Heightened Def Con from 0.0171678 to 0.0171678
Heightened Def Con from 0.0171678 +to 0.0171678
Heightened Def Con from 0.0171678 +to 0.0171678
Heightened Def Con from 0.0171678 to 0.0171678
Heightened Def Con from 0.0171678 to 0.0171678
Heightened Def Con from 0.0171678 to 0.0171678
Heightened Def Con from 0.0171678 to 0.0171678
Heightened Def Con from 0.0171678 to 0.0171678
Heightened Def Con from 0.0171678 to 0.0171678
Heightened Def Con from 0.0171678 to 0.0171678
Heightened Def Con from 0.0171678 to 0.0171678
Heightened Def Con from 0.0171678 to 0.0171678
Heightened Def Con from 0.0171678 to 0.0171678
Heightened Def Con from 0.0171678 to 0.0171678
Heightened Def Con from 0.0171678 to 0.0171678
Heightened Def Con from 0.0171679 to 0.0171679
Heightened Def Con from 0.0171679 to 0.0171679
Heightened Def Con from 0.0171679 to 0.0171679
Heightened Def Con from 0.0171679 to 0.0171679
Heightened Def Con from 0.0171679 to 0.0171679
Heightened Def Con from 0.0171679 +to 0.0171679
Heightened Def Con from 0.0171679 +to 0.0171679
Heightened Def Con from 0.0171679 to 0.0171679
Heightened Def Con from 0.0171679 to 0.0171679
Heightened Def Con from 0.0171679 to 0.0171679
Heightened Def Con from 0.0171679 to 0.0171679
Heightened Def Con from 0.0171679 to 0.0171679
Heightened Def Con from 0.0171679 +to 0.0171679
Heightened Def Con from 0.0171679 to 0.0171679
Heightened Def Con from 0.0171679 to 0.0171679
Heightened Def Con from 0.017168 to 0.017168
Heightened Def Con from 0.017168 to 0.017168
Heightened Def Con from 0.017168 to 0.017168
Heightened Def Con from 0.017168 to 0.017168
Heightened Def Con from 0.017168 to 0.017168
Heightened Def Con from 0.017168 +to 0.017168
Heightened Def Con from 0.017168 +to 0.017168
Heightened Def Con from 0.017168 to 0.017168
Heightened Def Con from 0.017168 to 0.017168
Heightened Def Con from 0.017168 to 0.017168
Heightened Def Con from 0.017168 to 0.017168
Heightened Def Con from 0.017168 to 0.017168
Heightened Def Con from 0.017168 to 0.017168
Heightened Def Con from 0.017168 to 0.017168
Heightened Def Con from 0.0171681 to 0.0171681
Heightened Def Con from 0.0171681 to 0.0171681
Heightened Def Con from 0.0171681 +to 0.0171681
Heightened Def Con from 0.0171681 to 0.0171681
Heightened Def Con from 0.0171681 to 0.0171681
Heightened Def Con from 0.0171681 to 0.0171681
Heightened Def Con from 0.0171681 to 0.0171681
Heightened Def Con from 0.0171681 to 0.0171681
Heightened Def Con from 0.0171681 +to 0.0171681
Heightened Def Con from 0.0171681 to 0.0171681
Heightened Def Con from 0.0171681 +to 0.0171681
Heightened Def Con from 0.0171681 to 0.0171681
Heightened Def Con from 0.0171681 to 0.0171681
Heightened Def Con from 0.0171681 to 0.0171681
Heightened Def Con from 0.0171681 +to 0.0171681
Heightened Def Con from 0.0171682 to 0.0171682
Heightened Def Con from 0.0171682 to 0.0171682
Heightened Def Con from 0.0171682 to 0.0171682
Heightened Def Con from 0.0171682 to 0.0171682
Heightened Def Con from 0.0171682 +to 0.0171682
Heightened Def Con from 0.0171682 to 0.0171682
Heightened Def Con from 0.0171682 to 0.0171682
Heightened Def Con from 0.0171682 to 0.0171682
Heightened Def Con from 0.0171682 to 0.0171682
Heightened Def Con from 0.0171682 to 0.0171682
Heightened Def Con from 0.0171682 to 0.0171682
Heightened Def Con from 0.0171682 to 0.0171682
Heightened Def Con from 0.0171682 to 0.0171682
Heightened Def Con from 0.0171682 to 0.0171682
Heightened Def Con from 0.0171682 to 0.0171682
Heightened Def Con from 0.0171682 to 0.0171682
Heightened Def Con from 0.0171682 +to 0.0171683
Heightened Def Con from 0.0171683 to 0.0171683
Heightened Def Con from 0.0171683 to 0.0171683
Heightened Def Con from 0.0171683 +to 0.0171683
Heightened Def Con from 0.0171683 to 0.0171683
Heightened Def Con from 0.0171683 to 0.0171683
Heightened Def Con from 0.0171683 +to 0.0171683
Heightened Def Con from 0.0171683 to 0.0171683
Heightened Def Con from 0.0171683 to 0.0171683
Heightened Def Con from 0.0171683 to 0.0171683
Heightened Def Con from 0.0171683 to 0.0171683
Heightened Def Con from 0.0171683 to 0.0171683
Heightened Def Con from 0.0171683 to 0.0171683
Heightened Def Con from 0.0171683 to 0.0171683
Heightened Def Con from 0.0171683 ++to 0.0171683
Heightened Def Con from 0.0171683 to 0.0171683
Heightened Def Con from 0.0171683 to 0.0171683
Heightened Def Con from 0.0171684 to 0.0171684
Heightened Def Con from 0.0171684 to 0.0171684
Heightened Def Con from 0.0171684 to 0.0171684
Heightened Def Con from 0.0171684 to 0.0171684
Heightened Def Con from 0.0171684 to 0.0171684
Heightened Def Con from 0.0171684 ++++to 0.0171684
Heightened Def Con from 0.0171684 to 0.0171684
Heightened Def Con from 0.0171684 to 0.0171684
Heightened Def Con from 0.0171684 +++to 0.0171684
Heightened Def Con from 0.0171684 to 0.0171684
Heightened Def Con from 0.0171684 to 0.0171684
Heightened Def Con from 0.0171684 to 0.0171684
Heightened Def Con from 0.0171684 to 0.0171684
Heightened Def Con from 0.0171684 to 0.0171684
Heightened Def Con from 0.0171685 to 0.0171685
Heightened Def Con from 0.0171685 +to 0.0171685
Heightened Def Con from 0.0171685 to 0.0171685
Heightened Def Con from 0.0171685 to 0.0171685
Heightened Def Con from 0.0171685 +to 0.0171685
Heightened Def Con from 0.0171685 ++to 0.0171685
Heightened Def Con from 0.0171685 to 0.0171685
Heightened Def Con from 0.0171685 to 0.0171685
Heightened Def Con from 0.0171685 to 0.0171685
Heightened Def Con from 0.0171685 to 0.0171685
Heightened Def Con from 0.0171685 to 0.0171685
Heightened Def Con from 0.0171685 to 0.0171685
Heightened Def Con from 0.0171685 to 0.0171685
Heightened Def Con from 0.0171685 to 0.0171685
Heightened Def Con from 0.0171685 to 0.0171685
Heightened Def Con from 0.0171685 to 0.0171686
Heightened Def Con from 0.0171686 to 0.0171686
Heightened Def Con from 0.0171686 to 0.0171686
Heightened Def Con from 0.0171686 to 0.0171686
Heightened Def Con from 0.0171686 to 0.0171686
Heightened Def Con from 0.0171686 to 0.0171686
Heightened Def Con from 0.0171686 to 0.0171686
Heightened Def Con from 0.0171686 to 0.0171686
Heightened Def Con from 0.0171686 to 0.0171686
Heightened Def Con from 0.0171686 to 0.0171686
Heightened Def Con from 0.0171686 to 0.0171686
Heightened Def Con from 0.0171686 to 0.0171686
Heightened Def Con from 0.0171686 +to 0.0171686
Heightened Def Con from 0.0171686 to 0.0171686
Heightened Def Con from 0.0171686 to 0.0171686
Heightened Def Con from 0.0171686 +to 0.0171686
Heightened Def Con from 0.0171687 +to 0.0171687
Heightened Def Con from 0.0171687 to 0.0171687
Heightened Def Con from 0.0171687 to 0.0171687
Heightened Def Con from 0.0171687 to 0.0171687
Heightened Def Con from 0.0171687 to 0.0171687
Heightened Def Con from 0.0171687 +to 0.0171687
Heightened Def Con from 0.0171687 to 0.0171687
Heightened Def Con from 0.0171687 to 0.0171687
Heightened Def Con from 0.0171687 to 0.0171687
Heightened Def Con from 0.0171687 to 0.0171687
Heightened Def Con from 0.0171687 to 0.0171687
Heightened Def Con from 0.0171687 to 0.0171687
Heightened Def Con from 0.0171687 to 0.0171687
Heightened Def Con from 0.0171687 to 0.0171687
Heightened Def Con from 0.0171687 +to 0.0171687
Heightened Def Con from 0.0171687 +to 0.0171687
Heightened Def Con from 0.0171688 to 0.0171688
Heightened Def Con from 0.0171688 +to 0.0171688
Heightened Def Con from 0.0171688 to 0.0171688
Heightened Def Con from 0.0171688 to 0.0171688
Heightened Def Con from 0.0171688 to 0.0171688
Heightened Def Con from 0.0171688 to 0.0171688
Heightened Def Con from 0.0171688 to 0.0171688
Heightened Def Con from 0.0171688 to 0.0171688
Heightened Def Con from 0.0171688 to 0.0171688
Heightened Def Con from 0.0171688 to 0.0171688
Heightened Def Con from 0.0171688 to 0.0171688
Heightened Def Con from 0.0171688 to 0.0171688
Heightened Def Con from 0.0171688 to 0.0171688
Heightened Def Con from 0.0171688 to 0.0171688
Heightened Def Con from 0.0171688 to 0.0171688
Heightened Def Con from 0.0171688 to 0.0171688
Heightened Def Con from 0.0171689 +to 0.0171689
Heightened Def Con from 0.0171689 ++to 0.0171689
Heightened Def Con from 0.0171689 +to 0.0171689
Heightened Def Con from 0.0171689 +to 0.0171689
Heightened Def Con from 0.0171689 ++to 0.0171689
Heightened Def Con from 0.0171689 to 0.0171689
Heightened Def Con from 0.0171689 to 0.0171689
Heightened Def Con from 0.0171689 +to 0.0171689
Heightened Def Con from 0.0171689 +to 0.0171689
Heightened Def Con from 0.0171689 to 0.0171689
Heightened Def Con from 0.0171689 to 0.0171689
Heightened Def Con from 0.0171689 to 0.0171689
Heightened Def Con from 0.0171689 to 0.0171689
Heightened Def Con from 0.0171689 to 0.0171689
Heightened Def Con from 0.0171689 to 0.0171689
Heightened Def Con from 0.017169 to 0.017169
Heightened Def Con from 0.017169 to 0.017169
Heightened Def Con from 0.017169 to 0.017169
Heightened Def Con from 0.017169 to 0.017169
Heightened Def Con from 0.017169 to 0.017169
Heightened Def Con from 0.017169 to 0.017169
Heightened Def Con from 0.017169 to 0.017169
Heightened Def Con from 0.017169 to 0.017169
Heightened Def Con from 0.017169 +to 0.017169
Heightened Def Con from 0.017169 to 0.017169
Heightened Def Con from 0.017169 to 0.017169
Heightened Def Con from 0.017169 to 0.017169
Heightened Def Con from 0.017169 to 0.017169
Heightened Def Con from 0.017169 to 0.017169
Heightened Def Con from 0.017169 to 0.017169
Heightened Def Con from 0.0171691 to 0.0171691
Heightened Def Con from 0.0171691 to 0.0171691
Heightened Def Con from 0.0171691 to 0.0171691
Heightened Def Con from 0.0171691 to 0.0171691
Heightened Def Con from 0.0171691 to 0.0171691
Heightened Def Con from 0.0171691 to 0.0171691
Heightened Def Con from 0.0171691 to 0.0171691
Heightened Def Con from 0.0171691 to 0.0171691
Heightened Def Con from 0.0171691 to 0.0171691
Heightened Def Con from 0.0171691 ++++to 0.0171691
Heightened Def Con from 0.0171691 +to 0.0171691
Heightened Def Con from 0.0171691 to 0.0171691
Heightened Def Con from 0.0171691 to 0.0171691
Heightened Def Con from 0.0171691 +to 0.0171691
Heightened Def Con from 0.0171691 to 0.0171691
Heightened Def Con from 0.0171691 to 0.0171691
Heightened Def Con from 0.0171692 to 0.0171692
Heightened Def Con from 0.0171692 to 0.0171692
Heightened Def Con from 0.0171692 to 0.0171692
Heightened Def Con from 0.0171692 to 0.0171692
Heightened Def Con from 0.0171692 to 0.0171692
Heightened Def Con from 0.0171692 to 0.0171692
Heightened Def Con from 0.0171692 to 0.0171692
Heightened Def Con from 0.0171692 to 0.0171692
Heightened Def Con from 0.0171692 to 0.0171692
Heightened Def Con from 0.0171692 +to 0.0171692
Heightened Def Con from 0.0171692 to 0.0171692
Heightened Def Con from 0.0171692 to 0.0171692
Heightened Def Con from 0.0171692 to 0.0171692
Heightened Def Con from 0.0171692 +to 0.0171692
Heightened Def Con from 0.0171692 to 0.0171692
Heightened Def Con from 0.0171692 to 0.0171693
Heightened Def Con from 0.0171693 to 0.0171693
Heightened Def Con from 0.0171693 to 0.0171693
Heightened Def Con from 0.0171693 to 0.0171693
Heightened Def Con from 0.0171693 to 0.0171693
Heightened Def Con from 0.0171693 to 0.0171693
Heightened Def Con from 0.0171693 to 0.0171693
Heightened Def Con from 0.0171693 to 0.0171693
Heightened Def Con from 0.0171693 to 0.0171693
Heightened Def Con from 0.0171693 to 0.0171693
Heightened Def Con from 0.0171693 ++to 0.0171693
Heightened Def Con from 0.0171693 to 0.0171693
Heightened Def Con from 0.0171693 to 0.0171693
Heightened Def Con from 0.0171693 to 0.0171693
Heightened Def Con from 0.0171693 to 0.0171693
Heightened Def Con from 0.0171693 to 0.0171693
Heightened Def Con from 0.0171694 to 0.0171694
Heightened Def Con from 0.0171694 to 0.0171694
Heightened Def Con from 0.0171694 to 0.0171694
Heightened Def Con from 0.0171694 to 0.0171694
Heightened Def Con from 0.0171694 +to 0.0171694
Heightened Def Con from 0.0171694 +to 0.0171694
Heightened Def Con from 0.0171694 to 0.0171694
Heightened Def Con from 0.0171694 to 0.0171694
Heightened Def Con from 0.0171694 to 0.0171694
Heightened Def Con from 0.0171694 to 0.0171694
Heightened Def Con from 0.0171694 to 0.0171694
Heightened Def Con from 0.0171694 ++to 0.0171694
Heightened Def Con from 0.0171694 to 0.0171694
Heightened Def Con from 0.0171694 to 0.0171694
Heightened Def Con from 0.0171694 to 0.0171694
Heightened Def Con from 0.0171695 to 0.0171695
Heightened Def Con from 0.0171695 to 0.0171695
Heightened Def Con from 0.0171695 +to 0.0171695
Heightened Def Con from 0.0171695 +to 0.0171695
Heightened Def Con from 0.0171695 to 0.0171695
Heightened Def Con from 0.0171695 to 0.0171695
Heightened Def Con from 0.0171695 +to 0.0171695
Heightened Def Con from 0.0171695 to 0.0171695
Heightened Def Con from 0.0171695 to 0.0171695
Heightened Def Con from 0.0171695 +to 0.0171695
Heightened Def Con from 0.0171695 to 0.0171695
Heightened Def Con from 0.0171695 to 0.0171695
Heightened Def Con from 0.0171695 to 0.0171695
Heightened Def Con from 0.0171695 to 0.0171695
Heightened Def Con from 0.0171695 +to 0.0171695
Heightened Def Con from 0.0171696 +to 0.0171696
Heightened Def Con from 0.0171696 +to 0.0171696
Heightened Def Con from 0.0171696 to 0.0171696
Heightened Def Con from 0.0171696 to 0.0171696
Heightened Def Con from 0.0171696 to 0.0171696
Heightened Def Con from 0.0171696 +to 0.0171696
Heightened Def Con from 0.0171696 to 0.0171696
Heightened Def Con from 0.0171696 +to 0.0171696
Heightened Def Con from 0.0171696 to 0.0171696
Heightened Def Con from 0.0171696 to 0.0171696
Heightened Def Con from 0.0171696 to 0.0171696
Heightened Def Con from 0.0171696 to 0.0171696
Heightened Def Con from 0.0171696 to 0.0171696
Heightened Def Con from 0.0171696 to 0.0171696
Heightened Def Con from 0.0171696 to 0.0171696
Heightened Def Con from 0.0171696 to 0.0171696
Heightened Def Con from 0.0171697 to 0.0171697
Heightened Def Con from 0.0171697 to 0.0171697
Heightened Def Con from 0.0171697 to 0.0171697
Heightened Def Con from 0.0171697 to 0.0171697
Heightened Def Con from 0.0171697 to 0.0171697
Heightened Def Con from 0.0171697 +to 0.0171697
Heightened Def Con from 0.0171697 to 0.0171697
Heightened Def Con from 0.0171697 to 0.0171697
Heightened Def Con from 0.0171697 to 0.0171697
Heightened Def Con from 0.0171697 ++to 0.0171697
Heightened Def Con from 0.0171697 to 0.0171697
Heightened Def Con from 0.0171697 to 0.0171697
Heightened Def Con from 0.0171697 +to 0.0171697
Heightened Def Con from 0.0171697 to 0.0171697
Heightened Def Con from 0.0171698 to 0.0171698
Heightened Def Con from 0.0171698 +to 0.0171698
Heightened Def Con from 0.0171698 to 0.0171698
Heightened Def Con from 0.0171698 to 0.0171698
Heightened Def Con from 0.0171698 to 0.0171698
Heightened Def Con from 0.0171698 to 0.0171698
Heightened Def Con from 0.0171698 ++to 0.0171698
Heightened Def Con from 0.0171698 to 0.0171698
Heightened Def Con from 0.0171698 to 0.0171698
Heightened Def Con from 0.0171698 ++to 0.0171698
Heightened Def Con from 0.0171698 to 0.0171698
Heightened Def Con from 0.0171698 to 0.0171698
Heightened Def Con from 0.0171698 to 0.0171698
Heightened Def Con from 0.0171698 to 0.0171698
Heightened Def Con from 0.0171698 +to 0.0171699
Heightened Def Con from 0.0171699 to 0.0171699
Heightened Def Con from 0.0171699 to 0.0171699
Heightened Def Con from 0.0171699 to 0.0171699
Heightened Def Con from 0.0171699 ++to 0.0171699
Heightened Def Con from 0.0171699 to 0.0171699
Heightened Def Con from 0.0171699 to 0.0171699
Heightened Def Con from 0.0171699 to 0.0171699
Heightened Def Con from 0.0171699 to 0.0171699
Heightened Def Con from 0.0171699 to 0.0171699
Heightened Def Con from 0.0171699 to 0.0171699
Heightened Def Con from 0.0171699 +to 0.0171699
Heightened Def Con from 0.0171699 to 0.0171699
Heightened Def Con from 0.0171699 to 0.0171699
Heightened Def Con from 0.0171699 +to 0.0171699
Heightened Def Con from 0.01717 to 0.01717
Heightened Def Con from 0.01717 +to 0.01717
Heightened Def Con from 0.01717 to 0.01717
Heightened Def Con from 0.01717 to 0.01717
Heightened Def Con from 0.01717 to 0.01717
Heightened Def Con from 0.01717 to 0.01717
Heightened Def Con from 0.01717 +to 0.01717
Heightened Def Con from 0.01717 to 0.01717
Heightened Def Con from 0.01717 to 0.01717
Heightened Def Con from 0.01717 to 0.01717
Heightened Def Con from 0.01717 +to 0.01717
Heightened Def Con from 0.01717 to 0.01717
Heightened Def Con from 0.01717 to 0.01717
Heightened Def Con from 0.01717 to 0.01717
Heightened Def Con from 0.01717 to 0.01717
Heightened Def Con from 0.01717 to 0.01717
Heightened Def Con from 0.0171701 +to 0.0171701
Heightened Def Con from 0.0171701 to 0.0171701
Heightened Def Con from 0.0171701 to 0.0171701
Heightened Def Con from 0.0171701 ++to 0.0171701
Heightened Def Con from 0.0171701 to 0.0171701
Heightened Def Con from 0.0171701 ++to 0.0171701
Heightened Def Con from 0.0171701 to 0.0171701
Heightened Def Con from 0.0171701 to 0.0171701
Heightened Def Con from 0.0171701 to 0.0171701
Heightened Def Con from 0.0171701 to 0.0171701
Heightened Def Con from 0.0171701 to 0.0171701
Heightened Def Con from 0.0171701 to 0.0171701
Heightened Def Con from 0.0171701 +to 0.0171701
Heightened Def Con from 0.0171701 ++to 0.0171701
Heightened Def Con from 0.0171702 to 0.0171702
Heightened Def Con from 0.0171702 +to 0.0171702
Heightened Def Con from 0.0171702 to 0.0171702
Heightened Def Con from 0.0171702 +to 0.0171702
Heightened Def Con from 0.0171702 to 0.0171702
Heightened Def Con from 0.0171702 to 0.0171702
Heightened Def Con from 0.0171702 to 0.0171702
Heightened Def Con from 0.0171702 to 0.0171702
Heightened Def Con from 0.0171702 to 0.0171702
Heightened Def Con from 0.0171702 to 0.0171702
Heightened Def Con from 0.0171702 to 0.0171702
Heightened Def Con from 0.0171702 to 0.0171702
Heightened Def Con from 0.0171702 +to 0.0171702
Heightened Def Con from 0.0171702 to 0.0171702
Heightened Def Con from 0.0171702 to 0.0171702
Heightened Def Con from 0.0171702 to 0.0171702
Heightened Def Con from 0.0171702 to 0.0171702
Heightened Def Con from 0.0171702 to 0.0171702
Heightened Def Con from 0.0171702 to 0.0171702
Heightened Def Con from 0.0171703 ++to 0.0171703
Heightened Def Con from 0.0171703 to 0.0171703
Heightened Def Con from 0.0171703 to 0.0171703
Heightened Def Con from 0.0171703 to 0.0171703
Heightened Def Con from 0.0171703 +to 0.0171703
Heightened Def Con from 0.0171703 to 0.0171703
Heightened Def Con from 0.0171703 +++to 0.0171703
Heightened Def Con from 0.0171703 to 0.0171703
Heightened Def Con from 0.0171703 to 0.0171703
Heightened Def Con from 0.0171703 to 0.0171703
Heightened Def Con from 0.0171703 to 0.0171703
Heightened Def Con from 0.0171703 +to 0.0171703
Heightened Def Con from 0.0171703 to 0.0171703
Heightened Def Con from 0.0171703 to 0.0171703
Heightened Def Con from 0.0171704 to 0.0171704
Heightened Def Con from 0.0171704 to 0.0171704
Heightened Def Con from 0.0171704 ++to 0.0171704
Heightened Def Con from 0.0171704 to 0.0171704
Heightened Def Con from 0.0171704 to 0.0171704
Heightened Def Con from 0.0171704 to 0.0171704
Heightened Def Con from 0.0171704 ++to 0.0171704
Heightened Def Con from 0.0171704 +to 0.0171704
Heightened Def Con from 0.0171704 to 0.0171704
Heightened Def Con from 0.0171704 +to 0.0171704
Heightened Def Con from 0.0171704 to 0.0171704
Heightened Def Con from 0.0171704 to 0.0171704
Heightened Def Con from 0.0171704 to 0.0171704
Heightened Def Con from 0.0171704 to 0.0171704
Heightened Def Con from 0.0171704 to 0.0171704
Heightened Def Con from 0.0171704 to 0.0171704
Heightened Def Con from 0.0171704 to 0.0171704
Heightened Def Con from 0.0171705 to 0.0171705
Heightened Def Con from 0.0171705 to 0.0171705
Heightened Def Con from 0.0171705 to 0.0171705
Heightened Def Con from 0.0171705 to 0.0171705
Heightened Def Con from 0.0171705 to 0.0171705
Heightened Def Con from 0.0171705 to 0.0171705
Heightened Def Con from 0.0171705 to 0.0171705
Heightened Def Con from 0.0171705 +to 0.0171705
Heightened Def Con from 0.0171705 to 0.0171705
Heightened Def Con from 0.0171705 to 0.0171705
Heightened Def Con from 0.0171705 to 0.0171705
Heightened Def Con from 0.0171705 to 0.0171705
Heightened Def Con from 0.0171705 to 0.0171705
Heightened Def Con from 0.0171705 to 0.0171705
Heightened Def Con from 0.0171705 to 0.0171705
Heightened Def Con from 0.0171705 to 0.0171705
Heightened Def Con from 0.0171706 to 0.0171706
Heightened Def Con from 0.0171706 +to 0.0171706
Heightened Def Con from 0.0171706 to 0.0171706
Heightened Def Con from 0.0171706 to 0.0171706
Heightened Def Con from 0.0171706 +to 0.0171706
Heightened Def Con from 0.0171706 to 0.0171706
Heightened Def Con from 0.0171706 to 0.0171706
Heightened Def Con from 0.0171706 to 0.0171706
Heightened Def Con from 0.0171706 to 0.0171706
Heightened Def Con from 0.0171706 to 0.0171706
Heightened Def Con from 0.0171706 to 0.0171706
Heightened Def Con from 0.0171706 to 0.0171706
Heightened Def Con from 0.0171706 ++to 0.0171706
Heightened Def Con from 0.0171706 to 0.0171706
Heightened Def Con from 0.0171707 to 0.0171707
Heightened Def Con from 0.0171707 to 0.0171707
Heightened Def Con from 0.0171707 to 0.0171707
Heightened Def Con from 0.0171707 to 0.0171707
Heightened Def Con from 0.0171707 to 0.0171707
Heightened Def Con from 0.0171707 to 0.0171707
Heightened Def Con from 0.0171707 to 0.0171707
Heightened Def Con from 0.0171707 +to 0.0171707
Heightened Def Con from 0.0171707 to 0.0171707
Heightened Def Con from 0.0171707 to 0.0171707
Heightened Def Con from 0.0171707 ++to 0.0171707
Heightened Def Con from 0.0171707 +to 0.0171707
Heightened Def Con from 0.0171707 to 0.0171707
Heightened Def Con from 0.0171707 to 0.0171707
Heightened Def Con from 0.0171707 to 0.0171707
Heightened Def Con from 0.0171708 to 0.0171708
Heightened Def Con from 0.0171708 to 0.0171708
Heightened Def Con from 0.0171708 +to 0.0171708
Heightened Def Con from 0.0171708 to 0.0171708
Heightened Def Con from 0.0171708 to 0.0171708
Heightened Def Con from 0.0171708 to 0.0171708
Heightened Def Con from 0.0171708 to 0.0171708
Heightened Def Con from 0.0171708 to 0.0171708
Heightened Def Con from 0.0171708 to 0.0171708
Heightened Def Con from 0.0171708 to 0.0171708
Heightened Def Con from 0.0171708 to 0.0171708
Heightened Def Con from 0.0171708 to 0.0171708
Heightened Def Con from 0.0171708 to 0.0171708
Heightened Def Con from 0.0171708 to 0.0171708
Heightened Def Con from 0.0171708 +to 0.0171708
Heightened Def Con from 0.0171709 to 0.0171709
Heightened Def Con from 0.0171709 to 0.0171709
Heightened Def Con from 0.0171709 to 0.0171709
Heightened Def Con from 0.0171709 +to 0.0171709
Heightened Def Con from 0.0171709 +to 0.0171709
Heightened Def Con from 0.0171709 to 0.0171709
Heightened Def Con from 0.0171709 to 0.0171709
Heightened Def Con from 0.0171709 to 0.0171709
Heightened Def Con from 0.0171709 to 0.0171709
Heightened Def Con from 0.0171709 to 0.0171709
Heightened Def Con from 0.0171709 to 0.0171709
Heightened Def Con from 0.0171709 +to 0.0171709
Heightened Def Con from 0.0171709 to 0.0171709
Heightened Def Con from 0.0171709 ++to 0.0171709
Heightened Def Con from 0.0171709 to 0.0171709
Heightened Def Con from 0.017171 to 0.017171
Heightened Def Con from 0.017171 to 0.017171
Heightened Def Con from 0.017171 to 0.017171
Heightened Def Con from 0.017171 +to 0.017171
Heightened Def Con from 0.017171 to 0.017171
Heightened Def Con from 0.017171 to 0.017171
Heightened Def Con from 0.017171 to 0.017171
Heightened Def Con from 0.017171 ++to 0.017171
Heightened Def Con from 0.017171 to 0.017171
Heightened Def Con from 0.017171 to 0.017171
Heightened Def Con from 0.017171 to 0.017171
Heightened Def Con from 0.017171 to 0.017171
Heightened Def Con from 0.017171 to 0.017171
Heightened Def Con from 0.017171 ++to 0.017171
Heightened Def Con from 0.017171 to 0.017171
Heightened Def Con from 0.0171711 to 0.0171711
Heightened Def Con from 0.0171711 to 0.0171711
Heightened Def Con from 0.0171711 to 0.0171711
Heightened Def Con from 0.0171711 ++to 0.0171711
Heightened Def Con from 0.0171711 to 0.0171711
Heightened Def Con from 0.0171711 to 0.0171711
Heightened Def Con from 0.0171711 to 0.0171711
Heightened Def Con from 0.0171711 to 0.0171711
Heightened Def Con from 0.0171711 to 0.0171711
Heightened Def Con from 0.0171711 to 0.0171711
Heightened Def Con from 0.0171711 to 0.0171711
Heightened Def Con from 0.0171711 to 0.0171711
Heightened Def Con from 0.0171711 ++to 0.0171711
Heightened Def Con from 0.0171711 to 0.0171711
Heightened Def Con from 0.0171711 to 0.0171711
Heightened Def Con from 0.0171711 to 0.0171712
Heightened Def Con from 0.0171712 to 0.0171712
Heightened Def Con from 0.0171712 to 0.0171712
Heightened Def Con from 0.0171712 to 0.0171712
Heightened Def Con from 0.0171712 to 0.0171712
Heightened Def Con from 0.0171712 to 0.0171712
Heightened Def Con from 0.0171712 to 0.0171712
Heightened Def Con from 0.0171712 to 0.0171712
Heightened Def Con from 0.0171712 to 0.0171712
Heightened Def Con from 0.0171712 to 0.0171712
Heightened Def Con from 0.0171712 +to 0.0171712
Heightened Def Con from 0.0171712 to 0.0171712
Heightened Def Con from 0.0171712 to 0.0171712
Heightened Def Con from 0.0171712 to 0.0171712
Heightened Def Con from 0.0171712 to 0.0171712
Heightened Def Con from 0.0171713 to 0.0171713
Heightened Def Con from 0.0171713 to 0.0171713
Heightened Def Con from 0.0171713 to 0.0171713
Heightened Def Con from 0.0171713 +to 0.0171713
Heightened Def Con from 0.0171713 to 0.0171713
Heightened Def Con from 0.0171713 to 0.0171713
Heightened Def Con from 0.0171713 to 0.0171713
Heightened Def Con from 0.0171713 to 0.0171713
Heightened Def Con from 0.0171713 to 0.0171713
Heightened Def Con from 0.0171713 to 0.0171713
Heightened Def Con from 0.0171713 ++to 0.0171713
Heightened Def Con from 0.0171713 to 0.0171713
Heightened Def Con from 0.0171713 to 0.0171713
Heightened Def Con from 0.0171713 to 0.0171713
Heightened Def Con from 0.0171713 to 0.0171713
Heightened Def Con from 0.0171714 to 0.0171714
Heightened Def Con from 0.0171714 to 0.0171714
Heightened Def Con from 0.0171714 to 0.0171714
Heightened Def Con from 0.0171714 to 0.0171714
Heightened Def Con from 0.0171714 to 0.0171714
Heightened Def Con from 0.0171714 to 0.0171714
Heightened Def Con from 0.0171714 ++to 0.0171714
Heightened Def Con from 0.0171714 +to 0.0171714
Heightened Def Con from 0.0171714 ++to 0.0171714
Heightened Def Con from 0.0171714 +to 0.0171714
Heightened Def Con from 0.0171714 to 0.0171714
Heightened Def Con from 0.0171714 ++to 0.0171714
Heightened Def Con from 0.0171714 +to 0.0171714
Heightened Def Con from 0.0171714 to 0.0171714
Heightened Def Con from 0.0171715 to 0.0171715
Heightened Def Con from 0.0171715 to 0.0171715
Heightened Def Con from 0.0171715 to 0.0171715
Heightened Def Con from 0.0171715 to 0.0171715
Heightened Def Con from 0.0171715 to 0.0171715
Heightened Def Con from 0.0171715 to 0.0171715
Heightened Def Con from 0.0171715 to 0.0171715
Heightened Def Con from 0.0171715 +to 0.0171715
Heightened Def Con from 0.0171715 to 0.0171715
Heightened Def Con from 0.0171715 to 0.0171715
Heightened Def Con from 0.0171715 to 0.0171715
Heightened Def Con from 0.0171715 to 0.0171715
Heightened Def Con from 0.0171715 to 0.0171715
Heightened Def Con from 0.0171715 to 0.0171715
Heightened Def Con from 0.0171715 to 0.0171715
Heightened Def Con from 0.0171716 ++++to 0.0171716
Heightened Def Con from 0.0171716 to 0.0171716
Heightened Def Con from 0.0171716 to 0.0171716
Heightened Def Con from 0.0171716 to 0.0171716
Heightened Def Con from 0.0171716 to 0.0171716
Heightened Def Con from 0.0171716 +to 0.0171716
Heightened Def Con from 0.0171716 to 0.0171716
Heightened Def Con from 0.0171716 to 0.0171716
Heightened Def Con from 0.0171716 to 0.0171716
Heightened Def Con from 0.0171716 to 0.0171716
Heightened Def Con from 0.0171716 +to 0.0171716
Heightened Def Con from 0.0171716 to 0.0171716
Heightened Def Con from 0.0171716 to 0.0171716
Heightened Def Con from 0.0171716 to 0.0171716
Heightened Def Con from 0.0171717 to 0.0171717
Heightened Def Con from 0.0171717 to 0.0171717
Heightened Def Con from 0.0171717 to 0.0171717
Heightened Def Con from 0.0171717 to 0.0171717
Heightened Def Con from 0.0171717 to 0.0171717
Heightened Def Con from 0.0171717 to 0.0171717
Heightened Def Con from 0.0171717 +to 0.0171717
Heightened Def Con from 0.0171717 to 0.0171717
Heightened Def Con from 0.0171717 to 0.0171717
Heightened Def Con from 0.0171717 to 0.0171717
Heightened Def Con from 0.0171717 to 0.0171717
Heightened Def Con from 0.0171717 to 0.0171717
Heightened Def Con from 0.0171717 to 0.0171717
Heightened Def Con from 0.0171717 +to 0.0171717
Heightened Def Con from 0.0171717 to 0.0171717
Heightened Def Con from 0.0171717 to 0.0171717
Heightened Def Con from 0.0171718 to 0.0171718
Heightened Def Con from 0.0171718 to 0.0171718
Heightened Def Con from 0.0171718 to 0.0171718
Heightened Def Con from 0.0171718 to 0.0171718
Heightened Def Con from 0.0171718 to 0.0171718
Heightened Def Con from 0.0171718 to 0.0171718
Heightened Def Con from 0.0171718 to 0.0171718
Heightened Def Con from 0.0171718 to 0.0171718
Heightened Def Con from 0.0171718 to 0.0171718
Heightened Def Con from 0.0171718 to 0.0171718
Heightened Def Con from 0.0171718 to 0.0171718
Heightened Def Con from 0.0171718 to 0.0171718
Heightened Def Con from 0.0171718 to 0.0171718
Heightened Def Con from 0.0171718 to 0.0171718
Heightened Def Con from 0.0171718 to 0.0171718
Heightened Def Con from 0.0171718 to 0.0171718
Heightened Def Con from 0.0171718 to 0.0171718
Heightened Def Con from 0.0171719 +to 0.0171719
Heightened Def Con from 0.0171719 to 0.0171719
Heightened Def Con from 0.0171719 to 0.0171719
Heightened Def Con from 0.0171719 to 0.0171719
Heightened Def Con from 0.0171719 to 0.0171719
Heightened Def Con from 0.0171719 to 0.0171719
Heightened Def Con from 0.0171719 to 0.0171719
Heightened Def Con from 0.0171719 to 0.0171719
Heightened Def Con from 0.0171719 +to 0.0171719
Heightened Def Con from 0.0171719 to 0.0171719
Heightened Def Con from 0.0171719 to 0.0171719
Heightened Def Con from 0.0171719 to 0.0171719
Heightened Def Con from 0.0171719 to 0.0171719
Heightened Def Con from 0.0171719 to 0.0171719
Heightened Def Con from 0.0171719 to 0.0171719
Heightened Def Con from 0.0171719 to 0.0171719
Heightened Def Con from 0.017172 +to 0.017172
Heightened Def Con from 0.017172 ++to 0.017172
Heightened Def Con from 0.017172 to 0.017172
Heightened Def Con from 0.017172 ++to 0.017172
Heightened Def Con from 0.017172 to 0.017172
Heightened Def Con from 0.017172 to 0.017172
Heightened Def Con from 0.017172 to 0.017172
Heightened Def Con from 0.017172 +to 0.017172
Heightened Def Con from 0.017172 to 0.017172
Heightened Def Con from 0.017172 +to 0.017172
Heightened Def Con from 0.017172 to 0.017172
Heightened Def Con from 0.017172 to 0.017172
Heightened Def Con from 0.017172 to 0.017172
Heightened Def Con from 0.017172 to 0.017172
Heightened Def Con from 0.0171721 to 0.0171721
Heightened Def Con from 0.0171721 +to 0.0171721
Heightened Def Con from 0.0171721 to 0.0171721
Heightened Def Con from 0.0171721 +to 0.0171721
Heightened Def Con from 0.0171721 to 0.0171721
Heightened Def Con from 0.0171721 to 0.0171721
Heightened Def Con from 0.0171721 to 0.0171721
Heightened Def Con from 0.0171721 +to 0.0171721
Heightened Def Con from 0.0171721 to 0.0171721
Heightened Def Con from 0.0171721 to 0.0171721
Heightened Def Con from 0.0171721 to 0.0171721
Heightened Def Con from 0.0171721 +to 0.0171721
Heightened Def Con from 0.0171721 +to 0.0171721
Heightened Def Con from 0.0171721 to 0.0171721
Heightened Def Con from 0.0171721 to 0.0171721
Heightened Def Con from 0.0171721 +to 0.0171721
Heightened Def Con from 0.0171722 to 0.0171722
Heightened Def Con from 0.0171722 to 0.0171722
Heightened Def Con from 0.0171722 to 0.0171722
Heightened Def Con from 0.0171722 to 0.0171722
Heightened Def Con from 0.0171722 to 0.0171722
Heightened Def Con from 0.0171722 ++to 0.0171722
Heightened Def Con from 0.0171722 to 0.0171722
Heightened Def Con from 0.0171722 to 0.0171722
Heightened Def Con from 0.0171722 to 0.0171722
Heightened Def Con from 0.0171722 to 0.0171722
Heightened Def Con from 0.0171722 to 0.0171722
Heightened Def Con from 0.0171722 to 0.0171722
Heightened Def Con from 0.0171722 +++to 0.0171722
Heightened Def Con from 0.0171722 +++to 0.0171722
Heightened Def Con from 0.0171722 to 0.0171722
Heightened Def Con from 0.0171722 +to 0.0171722
Heightened Def Con from 0.0171722 ++to 0.0171722
Heightened Def Con from 0.0171723 to 0.0171723
Heightened Def Con from 0.0171723 to 0.0171723
Heightened Def Con from 0.0171723 to 0.0171723
Heightened Def Con from 0.0171723 +to 0.0171723
Heightened Def Con from 0.0171723 to 0.0171723
Heightened Def Con from 0.0171723 to 0.0171723
Heightened Def Con from 0.0171723 +to 0.0171723
Heightened Def Con from 0.0171723 +to 0.0171723
Heightened Def Con from 0.0171723 to 0.0171723
Heightened Def Con from 0.0171723 +to 0.0171723
Heightened Def Con from 0.0171723 to 0.0171723
Heightened Def Con from 0.0171723 to 0.0171723
Heightened Def Con from 0.0171723 to 0.0171723
Heightened Def Con from 0.0171723 to 0.0171723
Heightened Def Con from 0.0171723 to 0.0171723
Heightened Def Con from 0.0171724 to 0.0171724
Heightened Def Con from 0.0171724 +to 0.0171724
Heightened Def Con from 0.0171724 +to 0.0171724
Heightened Def Con from 0.0171724 ++++to 0.0171724
Heightened Def Con from 0.0171724 +to 0.0171724
Heightened Def Con from 0.0171724 to 0.0171724
Heightened Def Con from 0.0171724 to 0.0171724
Heightened Def Con from 0.0171724 to 0.0171724
Heightened Def Con from 0.0171724 to 0.0171724
Heightened Def Con from 0.0171724 ++to 0.0171724
Heightened Def Con from 0.0171724 +to 0.0171724
Heightened Def Con from 0.0171724 +to 0.0171724
Heightened Def Con from 0.0171724 to 0.0171724
Heightened Def Con from 0.0171724 to 0.0171724
Heightened Def Con from 0.0171724 to 0.0171725
Heightened Def Con from 0.0171725 to 0.0171725
Heightened Def Con from 0.0171725 to 0.0171725
Heightened Def Con from 0.0171725 to 0.0171725
Heightened Def Con from 0.0171725 to 0.0171725
Heightened Def Con from 0.0171725 to 0.0171725
Heightened Def Con from 0.0171725 to 0.0171725
Heightened Def Con from 0.0171725 to 0.0171725
Heightened Def Con from 0.0171725 to 0.0171725
Heightened Def Con from 0.0171725 +to 0.0171725
Heightened Def Con from 0.0171725 to 0.0171725
Heightened Def Con from 0.0171725 to 0.0171725
Heightened Def Con from 0.0171725 to 0.0171725
Heightened Def Con from 0.0171725 to 0.0171725
Heightened Def Con from 0.0171725 to 0.0171725
Heightened Def Con from 0.0171725 to 0.0171725
Heightened Def Con from 0.0171726 to 0.0171726
Heightened Def Con from 0.0171726 to 0.0171726
Heightened Def Con from 0.0171726 to 0.0171726
Heightened Def Con from 0.0171726 +to 0.0171726
Heightened Def Con from 0.0171726 +to 0.0171726
Heightened Def Con from 0.0171726 to 0.0171726
Heightened Def Con from 0.0171726 to 0.0171726
Heightened Def Con from 0.0171726 to 0.0171726
Heightened Def Con from 0.0171726 to 0.0171726
Heightened Def Con from 0.0171726 ++to 0.0171726
Heightened Def Con from 0.0171726 to 0.0171726
Heightened Def Con from 0.0171726 to 0.0171726
Heightened Def Con from 0.0171726 +to 0.0171726
Heightened Def Con from 0.0171726 +to 0.0171726
Heightened Def Con from 0.0171726 to 0.0171726
Heightened Def Con from 0.0171726 to 0.0171726
Heightened Def Con from 0.0171726 to 0.0171727
Heightened Def Con from 0.0171727 to 0.0171727
Heightened Def Con from 0.0171727 +to 0.0171727
Heightened Def Con from 0.0171727 to 0.0171727
Heightened Def Con from 0.0171727 to 0.0171727
Heightened Def Con from 0.0171727 +to 0.0171727
Heightened Def Con from 0.0171727 to 0.0171727
Heightened Def Con from 0.0171727 to 0.0171727
Heightened Def Con from 0.0171727 +to 0.0171727
Heightened Def Con from 0.0171727 to 0.0171727
Heightened Def Con from 0.0171727 to 0.0171727
Heightened Def Con from 0.0171727 +to 0.0171727
Heightened Def Con from 0.0171727 to 0.0171727
Heightened Def Con from 0.0171727 to 0.0171727
Heightened Def Con from 0.0171727 to 0.0171727
Heightened Def Con from 0.0171727 +to 0.0171727
Heightened Def Con from 0.0171727 to 0.0171727
Heightened Def Con from 0.0171728 to 0.0171728
Heightened Def Con from 0.0171728 +to 0.0171728
Heightened Def Con from 0.0171728 +to 0.0171728
Heightened Def Con from 0.0171728 to 0.0171728
Heightened Def Con from 0.0171728 +to 0.0171728
Heightened Def Con from 0.0171728 to 0.0171728
Heightened Def Con from 0.0171728 to 0.0171728
Heightened Def Con from 0.0171728 to 0.0171728
Heightened Def Con from 0.0171728 to 0.0171728
Heightened Def Con from 0.0171728 +to 0.0171728
Heightened Def Con from 0.0171728 to 0.0171728
Heightened Def Con from 0.0171728 +to 0.0171728
Heightened Def Con from 0.0171728 to 0.0171728
Heightened Def Con from 0.0171728 to 0.0171728
Heightened Def Con from 0.0171729 +to 0.0171729
Heightened Def Con from 0.0171729 to 0.0171729
Heightened Def Con from 0.0171729 to 0.0171729
Heightened Def Con from 0.0171729 to 0.0171729
Heightened Def Con from 0.0171729 to 0.0171729
Heightened Def Con from 0.0171729 to 0.0171729
Heightened Def Con from 0.0171729 to 0.0171729
Heightened Def Con from 0.0171729 to 0.0171729
Heightened Def Con from 0.0171729 to 0.0171729
Heightened Def Con from 0.0171729 to 0.0171729
Heightened Def Con from 0.0171729 to 0.0171729
Heightened Def Con from 0.0171729 to 0.0171729
Heightened Def Con from 0.0171729 to 0.0171729
Heightened Def Con from 0.0171729 to 0.0171729
Heightened Def Con from 0.0171729 +to 0.0171729
Heightened Def Con from 0.0171729 to 0.0171729
Heightened Def Con from 0.0171729 to 0.0171729
Heightened Def Con from 0.017173 to 0.017173
Heightened Def Con from 0.017173 +++to 0.017173
Heightened Def Con from 0.017173 +to 0.017173
Heightened Def Con from 0.017173 to 0.017173
Heightened Def Con from 0.017173 to 0.017173
Heightened Def Con from 0.017173 +to 0.017173
Heightened Def Con from 0.017173 to 0.017173
Heightened Def Con from 0.017173 to 0.017173
Heightened Def Con from 0.017173 to 0.017173
Heightened Def Con from 0.017173 to 0.017173
Heightened Def Con from 0.017173 to 0.017173
Heightened Def Con from 0.017173 to 0.017173
Heightened Def Con from 0.017173 to 0.017173
Heightened Def Con from 0.017173 to 0.017173
Heightened Def Con from 0.017173 to 0.017173
Heightened Def Con from 0.017173 to 0.017173
Heightened Def Con from 0.0171731 +to 0.0171731
Heightened Def Con from 0.0171731 to 0.0171731
Heightened Def Con from 0.0171731 +to 0.0171731
Heightened Def Con from 0.0171731 +to 0.0171731
Heightened Def Con from 0.0171731 to 0.0171731
Heightened Def Con from 0.0171731 +to 0.0171731
Heightened Def Con from 0.0171731 to 0.0171731
Heightened Def Con from 0.0171731 to 0.0171731
Heightened Def Con from 0.0171731 to 0.0171731
Heightened Def Con from 0.0171731 +to 0.0171731
Heightened Def Con from 0.0171731 to 0.0171731
Heightened Def Con from 0.0171731 +to 0.0171731
Heightened Def Con from 0.0171731 to 0.0171731
Heightened Def Con from 0.0171731 to 0.0171731
Heightened Def Con from 0.0171731 +to 0.0171731
Heightened Def Con from 0.0171732 +to 0.0171732
Heightened Def Con from 0.0171732 ++to 0.0171732
Heightened Def Con from 0.0171732 +to 0.0171732
Heightened Def Con from 0.0171732 to 0.0171732
Heightened Def Con from 0.0171732 to 0.0171732
Heightened Def Con from 0.0171732 to 0.0171732
Heightened Def Con from 0.0171732 to 0.0171732
Heightened Def Con from 0.0171732 +to 0.0171732
Heightened Def Con from 0.0171732 ++to 0.0171732
Heightened Def Con from 0.0171732 to 0.0171732
Heightened Def Con from 0.0171732 to 0.0171732
Heightened Def Con from 0.0171732 to 0.0171732
Heightened Def Con from 0.0171732 to 0.0171732
Heightened Def Con from 0.0171732 to 0.0171732
Heightened Def Con from 0.0171732 ++to 0.0171732
Heightened Def Con from 0.0171732 to 0.0171733
Heightened Def Con from 0.0171733 +to 0.0171733
Heightened Def Con from 0.0171733 to 0.0171733
Heightened Def Con from 0.0171733 +to 0.0171733
Heightened Def Con from 0.0171733 to 0.0171733
Heightened Def Con from 0.0171733 to 0.0171733
Heightened Def Con from 0.0171733 to 0.0171733
Heightened Def Con from 0.0171733 to 0.0171733
Heightened Def Con from 0.0171733 to 0.0171733
Heightened Def Con from 0.0171733 to 0.0171733
Heightened Def Con from 0.0171733 +to 0.0171733
Heightened Def Con from 0.0171733 to 0.0171733
Heightened Def Con from 0.0171733 to 0.0171733
Heightened Def Con from 0.0171733 to 0.0171733
Heightened Def Con from 0.0171733 to 0.0171733
Heightened Def Con from 0.0171733 to 0.0171733
Heightened Def Con from 0.0171733 +to 0.0171733
Heightened Def Con from 0.0171733 to 0.0171733
Heightened Def Con from 0.0171733 to 0.0171733
Heightened Def Con from 0.0171734 to 0.0171734
Heightened Def Con from 0.0171734 +to 0.0171734
Heightened Def Con from 0.0171734 to 0.0171734
Heightened Def Con from 0.0171734 to 0.0171734
Heightened Def Con from 0.0171734 +to 0.0171734
Heightened Def Con from 0.0171734 to 0.0171734
Heightened Def Con from 0.0171734 to 0.0171734
Heightened Def Con from 0.0171734 ++to 0.0171734
Heightened Def Con from 0.0171734 to 0.0171734
Heightened Def Con from 0.0171734 +to 0.0171734
Heightened Def Con from 0.0171734 to 0.0171734
Heightened Def Con from 0.0171734 to 0.0171734
Heightened Def Con from 0.0171734 to 0.0171734
Heightened Def Con from 0.0171734 to 0.0171734
Heightened Def Con from 0.0171735 +to 0.0171735
Heightened Def Con from 0.0171735 +to 0.0171735
Heightened Def Con from 0.0171735 to 0.0171735
Heightened Def Con from 0.0171735 to 0.0171735
Heightened Def Con from 0.0171735 to 0.0171735
Heightened Def Con from 0.0171735 to 0.0171735
Heightened Def Con from 0.0171735 to 0.0171735
Heightened Def Con from 0.0171735 to 0.0171735
Heightened Def Con from 0.0171735 ++to 0.0171735
Heightened Def Con from 0.0171735 to 0.0171735
Heightened Def Con from 0.0171735 to 0.0171735
Heightened Def Con from 0.0171735 +to 0.0171735
Heightened Def Con from 0.0171735 to 0.0171735
Heightened Def Con from 0.0171735 to 0.0171735
Heightened Def Con from 0.0171735 +to 0.0171735
Heightened Def Con from 0.0171735 to 0.0171735
Heightened Def Con from 0.0171736 to 0.0171736
Heightened Def Con from 0.0171736 +++to 0.0171736
Heightened Def Con from 0.0171736 to 0.0171736
Heightened Def Con from 0.0171736 to 0.0171736
Heightened Def Con from 0.0171736 ++to 0.0171736
Heightened Def Con from 0.0171736 to 0.0171736
Heightened Def Con from 0.0171736 to 0.0171736
Heightened Def Con from 0.0171736 to 0.0171736
Heightened Def Con from 0.0171736 +to 0.0171736
Heightened Def Con from 0.0171736 to 0.0171736
Heightened Def Con from 0.0171736 to 0.0171736
Heightened Def Con from 0.0171736 to 0.0171736
Heightened Def Con from 0.0171736 ++to 0.0171736
Heightened Def Con from 0.0171736 to 0.0171736
Heightened Def Con from 0.0171736 to 0.0171736
Heightened Def Con from 0.0171737 to 0.0171737
Heightened Def Con from 0.0171737 to 0.0171737
Heightened Def Con from 0.0171737 to 0.0171737
Heightened Def Con from 0.0171737 to 0.0171737
Heightened Def Con from 0.0171737 +to 0.0171737
Heightened Def Con from 0.0171737 +to 0.0171737
Heightened Def Con from 0.0171737 to 0.0171737
Heightened Def Con from 0.0171737 ++to 0.0171737
Heightened Def Con from 0.0171737 ++to 0.0171737
Heightened Def Con from 0.0171737 to 0.0171737
Heightened Def Con from 0.0171737 to 0.0171737
Heightened Def Con from 0.0171737 to 0.0171737
Heightened Def Con from 0.0171737 to 0.0171737
Heightened Def Con from 0.0171737 to 0.0171737
Heightened Def Con from 0.0171737 +to 0.0171737
Heightened Def Con from 0.0171738 to 0.0171738
Heightened Def Con from 0.0171738 to 0.0171738
Heightened Def Con from 0.0171738 to 0.0171738
Heightened Def Con from 0.0171738 to 0.0171738
Heightened Def Con from 0.0171738 to 0.0171738
Heightened Def Con from 0.0171738 +to 0.0171738
Heightened Def Con from 0.0171738 to 0.0171738
Heightened Def Con from 0.0171738 +to 0.0171738
Heightened Def Con from 0.0171738 to 0.0171738
Heightened Def Con from 0.0171738 +to 0.0171738
Heightened Def Con from 0.0171738 to 0.0171738
Heightened Def Con from 0.0171738 to 0.0171738
Heightened Def Con from 0.0171738 to 0.0171738
Heightened Def Con from 0.0171738 +to 0.0171738
Heightened Def Con from 0.0171738 to 0.0171738
Heightened Def Con from 0.0171738 to 0.0171739
Heightened Def Con from 0.0171739 to 0.0171739
Heightened Def Con from 0.0171739 to 0.0171739
Heightened Def Con from 0.0171739 to 0.0171739
Heightened Def Con from 0.0171739 to 0.0171739
Heightened Def Con from 0.0171739 to 0.0171739
Heightened Def Con from 0.0171739 to 0.0171739
Heightened Def Con from 0.0171739 to 0.0171739
Heightened Def Con from 0.0171739 +++to 0.0171739
Heightened Def Con from 0.0171739 ++to 0.0171739
Heightened Def Con from 0.0171739 to 0.0171739
Heightened Def Con from 0.0171739 ++to 0.0171739
Heightened Def Con from 0.0171739 to 0.0171739
Heightened Def Con from 0.0171739 to 0.0171739
Heightened Def Con from 0.0171739 +to 0.0171739
Heightened Def Con from 0.0171739 to 0.0171739
Heightened Def Con from 0.017174 to 0.017174
Heightened Def Con from 0.017174 to 0.017174
Heightened Def Con from 0.017174 to 0.017174
Heightened Def Con from 0.017174 to 0.017174
Heightened Def Con from 0.017174 to 0.017174
Heightened Def Con from 0.017174 to 0.017174
Heightened Def Con from 0.017174 to 0.017174
Heightened Def Con from 0.017174 to 0.017174
Heightened Def Con from 0.017174 to 0.017174
Heightened Def Con from 0.017174 to 0.017174
Heightened Def Con from 0.017174 +to 0.017174
Heightened Def Con from 0.017174 to 0.017174
Heightened Def Con from 0.017174 to 0.017174
Heightened Def Con from 0.017174 +++to 0.017174
Heightened Def Con from 0.017174 +to 0.017174
Heightened Def Con from 0.0171741 to 0.0171741
Heightened Def Con from 0.0171741 to 0.0171741
Heightened Def Con from 0.0171741 to 0.0171741
Heightened Def Con from 0.0171741 to 0.0171741
Heightened Def Con from 0.0171741 to 0.0171741
Heightened Def Con from 0.0171741 to 0.0171741
Heightened Def Con from 0.0171741 to 0.0171741
Heightened Def Con from 0.0171741 to 0.0171741
Heightened Def Con from 0.0171741 to 0.0171741
Heightened Def Con from 0.0171741 ++to 0.0171741
Heightened Def Con from 0.0171741 to 0.0171741
Heightened Def Con from 0.0171741 +to 0.0171741
Heightened Def Con from 0.0171741 to 0.0171741
Heightened Def Con from 0.0171741 +to 0.0171741
Heightened Def Con from 0.0171741 to 0.0171741
Heightened Def Con from 0.0171741 to 0.0171741
Heightened Def Con from 0.0171741 to 0.0171741
Heightened Def Con from 0.0171742 to 0.0171742
Heightened Def Con from 0.0171742 to 0.0171742
Heightened Def Con from 0.0171742 +to 0.0171742
Heightened Def Con from 0.0171742 to 0.0171742
Heightened Def Con from 0.0171742 +to 0.0171742
Heightened Def Con from 0.0171742 to 0.0171742
Heightened Def Con from 0.0171742 +to 0.0171742
Heightened Def Con from 0.0171742 +to 0.0171742
Heightened Def Con from 0.0171742 to 0.0171742
Heightened Def Con from 0.0171742 to 0.0171742
Heightened Def Con from 0.0171742 +to 0.0171742
Heightened Def Con from 0.0171742 +to 0.0171742
Heightened Def Con from 0.0171742 to 0.0171742
Heightened Def Con from 0.0171742 to 0.0171742
Heightened Def Con from 0.0171742 to 0.0171742
Heightened Def Con from 0.0171743 to 0.0171743
Heightened Def Con from 0.0171743 to 0.0171743
Heightened Def Con from 0.0171743 to 0.0171743
Heightened Def Con from 0.0171743 to 0.0171743
Heightened Def Con from 0.0171743 +to 0.0171743
Heightened Def Con from 0.0171743 +to 0.0171743
Heightened Def Con from 0.0171743 to 0.0171743
Heightened Def Con from 0.0171743 to 0.0171743
Heightened Def Con from 0.0171743 to 0.0171743
[...]
Heightened Def Con from 0.0173014 to 0.0173014
Heightened Def Con from 0.0173014 to 0.0173014
Heightened Def Con from 0.0173014 to 0.0173014
Heightened Def Con from 0.0173014 to 0.0173014
Heightened Def Con from 0.0173014 to 0.0173014
Heightened Def Con from 0.0173014 to 0.0173014
Heightened Def Con from 0.0173014 to 0.0173014
Heightened Def Con from 0.0173014 to 0.0173014
Heightened Def Con from 0.0173014 +to 0.0173014
Heightened Def Con from 0.0173014 to 0.0173014
Heightened Def Con from 0.0173014 to 0.0173014
Heightened Def Con from 0.0173014 to 0.0173014
Heightened Def Con from 0.0173014 to 0.0173014
Heightened Def Con from 0.0173014 to 0.0173014
Heightened Def Con from 0.0173014 to 0.0173014
Heightened Def Con from 0.0173014 to 0.0173014
Heightened Def Con from 0.0173014 to 0.0173014
Heightened Def Con from 0.0173014 to 0.0173014
Heightened Def Con from 0.0173014 to 0.0173014
Heightened Def Con from 0.0173014 to 0.0173014
Heightened Def Con from 0.0173014 to 0.0173014
Heightened Def Con from 0.0173014 to 0.0173014
Heightened Def Con from 0.0173014 to 0.0173014
Heightened Def Con from 0.0173014 to 0.0173014
Heightened Def Con from 0.0173014 to 0.0173014
Heightened Def Con from 0.0173014 to 0.0173014
Heightened Def Con from 0.0173014 to 0.0173014
Heightened Def Con from 0.0173014 to 0.0173014
Heightened Def Con from 0.0173014 to 0.0173014
Heightened Def Con from 0.0173014 to 0.0173014
Heightened Def Con from 0.0173014 to 0.0173014
Heightened Def Con from 0.0173014 to 0.0173014
Heightened Def Con from 0.0173014 to 0.0173014
Heightened Def Con from 0.0173014 +to 0.0173014
Heightened Def Con from 0.0173014 to 0.0173014
Heightened Def Con from 0.0173014 to 0.0173014
Heightened Def Con from 0.0173014 to 0.0173014
Heightened Def Con from 0.0173014 to 0.0173014
Heightened Def Con from 0.0173014 to 0.0173014
Heightened Def Con from 0.0173014 to 0.0173014
Heightened Def Con from 0.0173014 to 0.0173014
Heightened Def Con from 0.0173014 to 0.0173014
Heightened Def Con from 0.0173014 to 0.0173014
Heightened Def Con from 0.0173014 to 0.0173014
Heightened Def Con from 0.0173014 to 0.0173014
Heightened Def Con from 0.0173014 to 0.0173014
Heightened Def Con from 0.0173014 to 0.0173014
Heightened Def Con from 0.0173014 to 0.0173014
Heightened Def Con from 0.0173014 to 0.0173014
Heightened Def Con from 0.0173014 to 0.0173014
Heightened Def Con from 0.0173014 to 0.0173014
Heightened Def Con from 0.0173014 to 0.0173014
Heightened Def Con from 0.0173014 to 0.0173014
Heightened Def Con from 0.0173014 to 0.0173014
Heightened Def Con from 0.0173014 to 0.0173014
Heightened Def Con from 0.0173014 to 0.0173014
Heightened Def Con from 0.0173014 to 0.0173014
Heightened Def Con from 0.0173014 to 0.0173014
Heightened Def Con from 0.0173014 to 0.0173014
Heightened Def Con from 0.0173014 to 0.0173014
Heightened Def Con from 0.0173014 to 0.0173014
Heightened Def Con from 0.0173014 to 0.0173014
Heightened Def Con from 0.0173014 to 0.0173014
Heightened Def Con from 0.0173014 to 0.0173014
Heightened Def Con from 0.0173014 +to 0.0173014
Heightened Def Con from 0.0173014 to 0.0173014
Heightened Def Con from 0.0173014 to 0.0173014
Heightened Def Con from 0.0173014 to 0.0173014
Heightened Def Con from 0.0173014 to 0.0173014
Heightened Def Con from 0.0173014 to 0.0173014
Heightened Def Con from 0.0173014 to 0.0173014
Heightened Def Con from 0.0173014 to 0.0173014
Heightened Def Con from 0.0173014 to 0.0173014
Heightened Def Con from 0.0173014 to 0.0173014
Heightened Def Con from 0.0173014 to 0.0173014
Heightened Def Con from 0.0173014 to 0.0173014
Heightened Def Con from 0.0173014 +to 0.0173014
Heightened Def Con from 0.0173014 to 0.0173014
Heightened Def Con from 0.0173014 to 0.0173014
Heightened Def Con from 0.0173014 to 0.0173014
Heightened Def Con from 0.0173014 to 0.0173014
Heightened Def Con from 0.0173014 to 0.0173014
Heightened Def Con from 0.0173014 to 0.0173014
Heightened Def Con from 0.0173014 to 0.0173014
Heightened Def Con from 0.0173014 to 0.0173014
Heightened Def Con from 0.0173014 to 0.0173014
Heightened Def Con from 0.0173014 to 0.0173014
Heightened Def Con from 0.0173014 to 0.0173014
Heightened Def Con from 0.0173014 to 0.0173014
Heightened Def Con from 0.0173014 to 0.0173014
Heightened Def Con from 0.0173014 to 0.0173014
Heightened Def Con from 0.0173014 to 0.0173014
Heightened Def Con from 0.0173014 to 0.0173014
Heightened Def Con from 0.0173014 to 0.0173014
Heightened Def Con from 0.0173014 +to 0.0173014
Heightened Def Con from 0.0173014 +to 0.0173014
Heightened Def Con from 0.0173014 +to 0.0173014
Heightened Def Con from 0.0173014 +to 0.0173014
Heightened Def Con from 0.0173014 to 0.0173014
Heightened Def Con from 0.0173014 to 0.0173014
Heightened Def Con from 0.0173014 to 0.0173014
Heightened Def Con from 0.0173014 to 0.0173014
Heightened Def Con from 0.0173014 to 0.0173014
Heightened Def Con from 0.0173014 to 0.0173014
Heightened Def Con from 0.0173014 to 0.0173014
Heightened Def Con from 0.0173014 to 0.0173014
Heightened Def Con from 0.0173014 to 0.0173014
Heightened Def Con from 0.0173014 to 0.0173014
Heightened Def Con from 0.0173014 +to 0.0173014
Heightened Def Con from 0.0173014 to 0.0173014
Heightened Def Con from 0.0173014 to 0.0173014
Heightened Def Con from 0.0173014 to 0.0173014
Heightened Def Con from 0.0173014 to 0.0173014
Heightened Def Con from 0.0173014 to 0.0173014
Heightened Def Con from 0.0173014 to 0.0173014
Heightened Def Con from 0.0173014 to 0.0173014
Heightened Def Con from 0.0173014 to 0.0173014
Heightened Def Con from 0.0173014 to 0.0173014
Heightened Def Con from 0.0173014 to 0.0173014
Heightened Def Con from 0.0173014 to 0.0173014
Heightened Def Con from 0.0173014 to 0.0173014
Heightened Def Con from 0.0173014 to 0.0173014
Heightened Def Con from 0.0173014 to 0.0173014
Heightened Def Con from 0.0173014 to 0.0173014
Heightened Def Con from 0.0173014 to 0.0173014
Heightened Def Con from 0.0173014 to 0.0173014
Heightened Def Con from 0.0173014 to 0.0173014
Heightened Def Con from 0.0173014 to 0.0173014
Heightened Def Con from 0.0173014 to 0.0173014
Heightened Def Con from 0.0173014 to 0.0173014
Heightened Def Con from 0.0173014 to 0.0173014
Heightened Def Con from 0.0173014 to 0.0173014
Heightened Def Con from 0.0173014 to 0.0173014
Heightened Def Con from 0.0173014 to 0.0173014
Heightened Def Con from 0.0173014 to 0.0173014
Heightened Def Con from 0.0173014 to 0.0173014
Heightened Def Con from 0.0173014 to 0.0173014
Heightened Def Con from 0.0173014 to 0.0173014
Heightened Def Con from 0.0173014 to 0.0173014
Heightened Def Con from 0.0173014 +to 0.0173014
Heightened Def Con from 0.0173014 +to 0.0173014
Heightened Def Con from 0.0173014 to 0.0173014
Heightened Def Con from 0.0173014 to 0.0173014
Heightened Def Con from 0.0173014 to 0.0173014
Heightened Def Con from 0.0173014 to 0.0173014
Heightened Def Con from 0.0173014 ++to 0.0173014
Heightened Def Con from 0.0173014 to 0.0173014
Heightened Def Con from 0.0173014 to 0.0173014
Heightened Def Con from 0.0173014 to 0.0173014
Heightened Def Con from 0.0173014 to 0.0173014
Heightened Def Con from 0.0173014 to 0.0173014
Heightened Def Con from 0.0173014 to 0.0173014
Heightened Def Con from 0.0173014 to 0.0173014
Heightened Def Con from 0.0173014 to 0.0173014
Heightened Def Con from 0.0173014 to 0.0173014
Heightened Def Con from 0.0173014 to 0.0173014
Heightened Def Con from 0.0173014 to 0.0173014
Heightened Def Con from 0.0173014 to 0.0173014
Heightened Def Con from 0.0173014 to 0.0173014
Heightened Def Con from 0.0173014 +to 0.0173014
Heightened Def Con from 0.0173014 to 0.0173014
Heightened Def Con from 0.0173014 to 0.0173014
Heightened Def Con from 0.0173014 +to 0.0173014
Heightened Def Con from 0.0173014 to 0.0173014
Heightened Def Con from 0.0173014 to 0.0173014
Heightened Def Con from 0.0173014 to 0.0173014
Heightened Def Con from 0.0173014 to 0.0173014
Heightened Def Con from 0.0173014 to 0.0173014
Heightened Def Con from 0.0173014 to 0.0173014
Heightened Def Con from 0.0173014 to 0.0173014
Heightened Def Con from 0.0173014 to 0.0173014
Heightened Def Con from 0.0173014 to 0.0173014
Heightened Def Con from 0.0173014 to 0.0173014
Heightened Def Con from 0.0173014 +to 0.0173014
Heightened Def Con from 0.0173014 +to 0.0173014
Heightened Def Con from 0.0173014 to 0.0173014
Heightened Def Con from 0.0173014 to 0.0173014
Heightened Def Con from 0.0173014 ++to 0.0173014
Heightened Def Con from 0.0173014 to 0.0173014
Heightened Def Con from 0.0173014 to 0.0173014
Heightened Def Con from 0.0173014 to 0.0173014
Heightened Def Con from 0.0173014 to 0.0173014
Heightened Def Con from 0.0173014 to 0.0173014
Heightened Def Con from 0.0173014 to 0.0173014
Heightened Def Con from 0.0173014 to 0.0173014
Heightened Def Con from 0.0173014 to 0.0173014
Heightened Def Con from 0.0173014 to 0.0173014
Heightened Def Con from 0.0173014 to 0.0173014
Heightened Def Con from 0.0173014 to 0.0173014
Heightened Def Con from 0.0173014 to 0.0173014
Heightened Def Con from 0.0173014 to 0.0173014
Heightened Def Con from 0.0173014 to 0.0173014
Heightened Def Con from 0.0173014 to 0.0173014
Heightened Def Con from 0.0173014 to 0.0173014
Heightened Def Con from 0.0173014 to 0.0173014
Heightened Def Con from 0.0173014 to 0.0173014
Heightened Def Con from 0.0173014 to 0.0173014
Heightened Def Con from 0.0173014 to 0.0173014
Heightened Def Con from 0.0173014 to 0.0173014
Heightened Def Con from 0.0173014 to 0.0173014
Heightened Def Con from 0.0173014 to 0.0173014
Heightened Def Con from 0.0173014 to 0.0173014
Heightened Def Con from 0.0173014 to 0.0173014
Heightened Def Con from 0.0173014 to 0.0173014
Heightened Def Con from 0.0173014 to 0.0173014
Heightened Def Con from 0.0173014 to 0.0173014
Heightened Def Con from 0.0173014 to 0.0173014
Heightened Def Con from 0.0173014 to 0.0173014
Heightened Def Con from 0.0173014 to 0.0173014
Heightened Def Con from 0.0173014 to 0.0173014
Heightened Def Con from 0.0173014 +to 0.0173014
Heightened Def Con from 0.0173014 to 0.0173014
Heightened Def Con from 0.0173014 to 0.0173014
Heightened Def Con from 0.0173014 to 0.0173014
Heightened Def Con from 0.0173014 to 0.0173014
Heightened Def Con from 0.0173014 to 0.0173014
Heightened Def Con from 0.0173014 to 0.0173014
Heightened Def Con from 0.0173014 to 0.0173014
Heightened Def Con from 0.0173014 to 0.0173014
Heightened Def Con from 0.0173014 to 0.0173014
Heightened Def Con from 0.0173014 +to 0.0173014
Heightened Def Con from 0.0173014 to 0.0173014
Heightened Def Con from 0.0173014 to 0.0173014
Heightened Def Con from 0.0173014 to 0.0173014
Heightened Def Con from 0.0173014 to 0.0173014
Heightened Def Con from 0.0173014 to 0.0173014
Heightened Def Con from 0.0173014 to 0.0173014
Heightened Def Con from 0.0173014 to 0.0173014
Heightened Def Con from 0.0173014 to 0.0173014
Heightened Def Con from 0.0173014 to 0.0173014
Heightened Def Con from 0.0173014 to 0.0173014
Heightened Def Con from 0.0173014 to 0.0173014
Heightened Def Con from 0.0173014 to 0.0173014
Heightened Def Con from 0.0173014 to 0.0173014
Heightened Def Con from 0.0173014 to 0.0173014
Heightened Def Con from 0.0173014 to 0.0173014
Heightened Def Con from 0.0173014 to 0.0173014
Heightened Def Con from 0.0173014 to 0.0173014
Heightened Def Con from 0.0173014 to 0.0173014
Heightened Def Con from 0.0173014 to 0.0173014
Heightened Def Con from 0.0173014 to 0.0173014
Heightened Def Con from 0.0173014 to 0.0173014
Heightened Def Con from 0.0173014 to 0.0173014
Heightened Def Con from 0.0173014 to 0.0173014
Heightened Def Con from 0.0173014 to 0.0173014
Heightened Def Con from 0.0173014 to 0.0173014
Heightened Def Con from 0.0173014 to 0.0173014
Heightened Def Con from 0.0173014 +to 0.0173014
Heightened Def Con from 0.0173014 to 0.0173014
Heightened Def Con from 0.0173014 to 0.0173014
Heightened Def Con from 0.0173014 to 0.0173014
Heightened Def Con from 0.0173014 to 0.0173014
Heightened Def Con from 0.0173014 to 0.0173014
Heightened Def Con from 0.0173014 to 0.0173014
Heightened Def Con from 0.0173014 to 0.0173014
Heightened Def Con from 0.0173014 to 0.0173014
Heightened Def Con from 0.0173014 to 0.0173014
Heightened Def Con from 0.0173014 to 0.0173014
Heightened Def Con from 0.0173014 to 0.0173014
Heightened Def Con from 0.0173014 to 0.0173014
Heightened Def Con from 0.0173014 to 0.0173014
Heightened Def Con from 0.0173014 to 0.0173014
Heightened Def Con from 0.0173014 to 0.0173014
Heightened Def Con from 0.0173014 to 0.0173014
Heightened Def Con from 0.0173014 +to 0.0173014
Heightened Def Con from 0.0173014 to 0.0173014
Heightened Def Con from 0.0173014 to 0.0173014
Heightened Def Con from 0.0173014 +to 0.0173014
Heightened Def Con from 0.0173014 to 0.0173014
Heightened Def Con from 0.0173014 to 0.0173014
Heightened Def Con from 0.0173014 +to 0.0173014
Heightened Def Con from 0.0173014 to 0.0173014
Heightened Def Con from 0.0173014 to 0.0173014
Heightened Def Con from 0.0173014 to 0.0173014
Heightened Def Con from 0.0173014 to 0.0173014
Heightened Def Con from 0.0173014 to 0.0173014
Heightened Def Con from 0.0173014 to 0.0173014
Heightened Def Con from 0.0173014 to 0.0173014
Heightened Def Con from 0.0173014 to 0.0173014
Heightened Def Con from 0.0173014 to 0.0173014
Heightened Def Con from 0.0173014 to 0.0173014
Heightened Def Con from 0.0173014 to 0.0173014
Heightened Def Con from 0.0173014 to 0.0173014
Heightened Def Con from 0.0173014 to 0.0173014
Heightened Def Con from 0.0173014 to 0.0173014
Heightened Def Con from 0.0173014 to 0.0173014
Heightened Def Con from 0.0173014 to 0.0173014
Heightened Def Con from 0.0173014 to 0.0173014
Heightened Def Con from 0.0173014 to 0.0173014
Heightened Def Con from 0.0173014 to 0.0173014
Heightened Def Con from 0.0173014 to 0.0173014
Heightened Def Con from 0.0173014 to 0.0173014
Heightened Def Con from 0.0173014 to 0.0173014
Heightened Def Con from 0.0173014 to 0.0173014
Heightened Def Con from 0.0173014 to 0.0173014
Heightened Def Con from 0.0173014 to 0.0173014
Heightened Def Con from 0.0173014 to 0.0173014
Heightened Def Con from 0.0173014 to 0.0173014
Heightened Def Con from 0.0173014 to 0.0173014
Heightened Def Con from 0.0173014 to 0.0173014
Heightened Def Con from 0.0173014 to 0.0173014
Heightened Def Con from 0.0173014 to 0.0173014
Heightened Def Con from 0.0173014 to 0.0173014
Heightened Def Con from 0.0173014 to 0.0173014
Heightened Def Con from 0.0173014 to 0.0173014
Heightened Def Con from 0.0173014 to 0.0173014
Heightened Def Con from 0.0173014 to 0.0173014
Heightened Def Con from 0.0173014 to 0.0173014
Heightened Def Con from 0.0173014 to 0.0173014
Heightened Def Con from 0.0173014 +to 0.0173014
Heightened Def Con from 0.0173014 to 0.0173014
Heightened Def Con from 0.0173014 to 0.0173014
Heightened Def Con from 0.0173014 to 0.0173014
Heightened Def Con from 0.0173014 to 0.0173014
Heightened Def Con from 0.0173014 to 0.0173014
Heightened Def Con from 0.0173014 to 0.0173014
Heightened Def Con from 0.0173014 to 0.0173014
Heightened Def Con from 0.0173014 to 0.0173014
Heightened Def Con from 0.0173014 to 0.0173014
Heightened Def Con from 0.0173014 to 0.0173014
Heightened Def Con from 0.0173014 to 0.0173014
Heightened Def Con from 0.0173014 to 0.0173014
Heightened Def Con from 0.0173014 to 0.0173014
Heightened Def Con from 0.0173014 to 0.0173014
Heightened Def Con from 0.0173014 to 0.0173014
Heightened Def Con from 0.0173014 to 0.0173014
Heightened Def Con from 0.0173014 to 0.0173014
Heightened Def Con from 0.0173014 +to 0.0173014
Heightened Def Con from 0.0173014 to 0.0173014
Heightened Def Con from 0.0173014 to 0.0173014
Heightened Def Con from 0.0173014 to 0.0173014
Heightened Def Con from 0.0173014 to 0.0173014
Heightened Def Con from 0.0173014 to 0.0173014
Heightened Def Con from 0.0173014 to 0.0173014
Heightened Def Con from 0.0173014 to 0.0173014
Heightened Def Con from 0.0173014 to 0.0173014
Heightened Def Con from 0.0173014 +to 0.0173014
Heightened Def Con from 0.0173014 to 0.0173014
Heightened Def Con from 0.0173014 to 0.0173014
Heightened Def Con from 0.0173014 to 0.0173014
Heightened Def Con from 0.0173014 to 0.0173014
Heightened Def Con from 0.0173014 to 0.0173014
Heightened Def Con from 0.0173014 to 0.0173014
Heightened Def Con from 0.0173014 to 0.0173014
Heightened Def Con from 0.0173014 to 0.0173014
Heightened Def Con from 0.0173014 to 0.0173014
Heightened Def Con from 0.0173014 to 0.0173014
Heightened Def Con from 0.0173014 to 0.0173014
Heightened Def Con from 0.0173014 to 0.0173014
Heightened Def Con from 0.0173014 to 0.0173014
Heightened Def Con from 0.0173014 to 0.0173014
Heightened Def Con from 0.0173014 to 0.0173014
Heightened Def Con from 0.0173014 to 0.0173014
Heightened Def Con from 0.0173014 to 0.0173014
Heightened Def Con from 0.0173014 to 0.0173014
Heightened Def Con from 0.0173014 to 0.0173014
Heightened Def Con from 0.0173014 to 0.0173014
Heightened Def Con from 0.0173014 to 0.0173014
Heightened Def Con from 0.0173014 to 0.0173014
Heightened Def Con from 0.0173014 to 0.0173014
Heightened Def Con from 0.0173014 to 0.0173014
Heightened Def Con from 0.0173014 to 0.0173014
Heightened Def Con from 0.0173014 to 0.0173014
Heightened Def Con from 0.0173014 to 0.0173014
Heightened Def Con from 0.0173014 to 0.0173014
Heightened Def Con from 0.0173014 to 0.0173014
Heightened Def Con from 0.0173014 to 0.0173014
Heightened Def Con from 0.0173014 to 0.0173014
Heightened Def Con from 0.0173014 to 0.0173014
Heightened Def Con from 0.0173014 to 0.0173014
Heightened Def Con from 0.0173014 to 0.0173014
Heightened Def Con from 0.0173014 to 0.0173014
Heightened Def Con from 0.0173014 to 0.0173014
Heightened Def Con from 0.0173014 to 0.0173014
Heightened Def Con from 0.0173014 to 0.0173014
Heightened Def Con from 0.0173014 to 0.0173014
Heightened Def Con from 0.0173014 to 0.0173014
Heightened Def Con from 0.0173014 to 0.0173014
Heightened Def Con from 0.0173014 to 0.0173014
Heightened Def Con from 0.0173014 to 0.0173014
Heightened Def Con from 0.0173014 to 0.0173014
Heightened Def Con from 0.0173014 to 0.0173014
Heightened Def Con from 0.0173014 to 0.0173014
Heightened Def Con from 0.0173014 to 0.0173014
Heightened Def Con from 0.0173014 to 0.0173014
Heightened Def Con from 0.0173014 to 0.0173014
Heightened Def Con from 0.0173014 to 0.0173014
Heightened Def Con from 0.0173014 to 0.0173014
Heightened Def Con from 0.0173014 to 0.0173014
Heightened Def Con from 0.0173014 to 0.0173014
Heightened Def Con from 0.0173014 to 0.0173014
Heightened Def Con from 0.0173014 to 0.0173014
Heightened Def Con from 0.0173014 to 0.0173014
Heightened Def Con from 0.0173014 to 0.0173014
Heightened Def Con from 0.0173014 to 0.0173014
Heightened Def Con from 0.0173014 to 0.0173014
Heightened Def Con from 0.0173014 +to 0.0173014
Heightened Def Con from 0.0173014 to 0.0173014
Heightened Def Con from 0.0173014 to 0.0173014
Heightened Def Con from 0.0173014 to 0.0173014
Heightened Def Con from 0.0173014 to 0.0173014
Heightened Def Con from 0.0173014 to 0.0173014
Heightened Def Con from 0.0173014 to 0.0173014
Heightened Def Con from 0.0173014 to 0.0173014
Heightened Def Con from 0.0173014 to 0.0173014
Heightened Def Con from 0.0173014 to 0.0173014
Heightened Def Con from 0.0173014 to 0.0173014
Heightened Def Con from 0.0173014 +to 0.0173014
Heightened Def Con from 0.0173014 to 0.0173014
Heightened Def Con from 0.0173014 to 0.0173014
Heightened Def Con from 0.0173014 to 0.0173014
Heightened Def Con from 0.0173014 to 0.0173014
Heightened Def Con from 0.0173014 to 0.0173014
Heightened Def Con from 0.0173014 to 0.0173014
Heightened Def Con from 0.0173014 to 0.0173014
Heightened Def Con from 0.0173014 to 0.0173014
Heightened Def Con from 0.0173014 to 0.0173014

Date: Sun May 07 12:33:51 2023
Total elapsed time: 83.908 seconds.

tnom = 27
temp = 27
method = modified trap
totiter = 19115366
traniter = 19115366
tranpoints = 1843879
accept = 368899
rejected = 1648551
matrix size = 28
fillins = 28
solver = Normal
Matrix Compiler1: 3.13 KB object code size  0.5/0.3/[0.3]
Matrix Compiler2: off  [0.2]/0.4/0.3

