Circuit: * Z:\mnt\CCD826BFD826A7A2\Documents\Dominik\projects\MPM\mpm-hardware\breakout-board-power-measurement\ltspice\capacitive-power-supply-2.asc

Warning: Multiple definitions of model "1n750" Type: Diode
Per .tran options, skipping operating point for transient analysis.

Date: Sat May 06 23:19:10 2023
Total elapsed time: 0.213 seconds.

tnom = 27
temp = 27
method = modified trap
totiter = 56743
traniter = 56743
tranpoints = 16143
accept = 11355
rejected = 4788
matrix size = 26
fillins = 22
solver = Normal
Matrix Compiler1: 2.75 KB object code size  0.5/0.3/[0.2]
Matrix Compiler2: off  [0.2]/0.3/0.2

