Circuit: * I:\home\dominik\Documents\Projects\MPM\mpm-hardware\breakout-board-power-measurement\ltspice\capacitive-power-supply.asc

Warning: Multiple definitions of model "1n750" Type: Diode
Per .tran options, skipping operating point for transient analysis.
Heightened Def Con from 0.00238706 to 0.00238707
Heightened Def Con from 0.00245949 to 0.00245949
Heightened Def Con from 0.00251892 to 0.00251893
Heightened Def Con from 0.0025404 to 0.0025404
Heightened Def Con from 0.00262482 to 0.00262482
Heightened Def Con from 0.0026418 to 0.00264181
Heightened Def Con from 0.00269974 to 0.00269975
Heightened Def Con from 0.00287457 to 0.00287457
Heightened Def Con from 0.002937 to 0.00293701
Heightened Def Con from 0.0030379 to 0.0030379
Heightened Def Con from 0.00305389 to 0.00305389
Heightened Def Con from 0.00309435 to 0.00309435
Heightened Def Con from 0.00321222 to 0.00321222
Heightened Def Con from 0.00324618 to 0.00324618
Heightened Def Con from 0.00325318 to 0.00325318
Heightened Def Con from 0.00330662 to 0.00330662
Heightened Def Con from 0.00335357 to 0.00335358
Heightened Def Con from 0.00339553 to 0.00339553
Heightened Def Con from 0.00340202 to 0.00340203
Heightened Def Con from 0.003423 to 0.003423
Heightened Def Con from 0.00343848 to 0.00343848
Heightened Def Con from 0.00344997 to 0.00344997
Heightened Def Con from 0.00345696 to 0.00345696
Heightened Def Con from 0.0035144 to 0.0035144
Heightened Def Con from 0.00372318 to 0.00372318
Heightened Def Con from 0.00375864 to 0.00375864
Heightened Def Con from 0.0038051 to 0.0038051
Heightened Def Con from 0.00383656 to 0.00383656
Heightened Def Con from 0.00390649 to 0.00390649
Heightened Def Con from 0.00396942 to 0.00396942
Heightened Def Con from 0.00402037 to 0.00402037
Heightened Def Con from 0.0040828 to 0.0040828
Heightened Def Con from 0.0041872 to 0.0041872
Heightened Def Con from 0.00436901 to 0.00436901
Heightened Def Con from 0.00447891 to 0.00447891
Heightened Def Con from 0.00449539 to 0.00449539
Heightened Def Con from 0.0045818 to 0.0045818
Heightened Def Con from 0.00463924 to 0.00463925
Heightened Def Con from 0.00465722 to 0.00465723
Heightened Def Con from 0.00468769 to 0.00468769
Heightened Def Con from 0.00472465 to 0.00472465
Heightened Def Con from 0.00472615 to 0.00472615
Heightened Def Con from 0.00473264 to 0.00473265
Heightened Def Con from 0.00476112 to 0.00476112
Heightened Def Con from 0.00481905 to 0.00481906
Heightened Def Con from 0.00484802 to 0.00484803
Heightened Def Con from 0.00486001 to 0.00486001
Heightened Def Con from 0.00489997 to 0.00489997
Heightened Def Con from 0.00498838 to 0.00498838
Heightened Def Con from 0.00509128 to 0.00509128
Heightened Def Con from 0.00511226 to 0.00511226
Heightened Def Con from 0.00520816 to 0.00520816
Heightened Def Con from 0.00522364 to 0.00522364
Heightened Def Con from 0.00532954 to 0.00532954
Heightened Def Con from 0.00539697 to 0.00539697
Heightened Def Con from 0.00542395 to 0.00542395
Heightened Def Con from 0.00542594 to 0.00542595
Heightened Def Con from 0.00548638 to 0.00548638
Heightened Def Con from 0.00548988 to 0.00548988
Heightened Def Con from 0.00561675 to 0.00561675
Heightened Def Con from 0.00564722 to 0.00564722
Heightened Def Con from 0.00569967 to 0.00569967
Heightened Def Con from 0.00572764 to 0.00572764
Heightened Def Con from 0.00582454 to 0.00582454
Heightened Def Con from 0.00584102 to 0.00584103
Heightened Def Con from 0.0058585 to 0.0058585
Heightened Def Con from 0.00587549 to 0.00587549
Heightened Def Con from 0.00587799 to 0.00587799
Heightened Def Con from 0.00590995 to 0.00590995
Heightened Def Con from 0.00595341 to 0.00595341
Heightened Def Con from 0.00597539 to 0.00597539
Heightened Def Con from 0.00599936 to 0.00599937
Heightened Def Con from 0.00600536 to 0.00600536
Heightened Def Con from 0.00603683 to 0.00603683
Heightened Def Con from 0.00604682 to 0.00604682
Heightened Def Con from 0.00608229 to 0.00608229
Heightened Def Con from 0.00610777 to 0.00610777
Heightened Def Con from 0.0062846 to 0.0062846
Heightened Def Con from 0.00635353 to 0.00635353
Heightened Def Con from 0.00636552 to 0.00636552
Heightened Def Con from 0.00636752 to 0.00636752
Heightened Def Con from 0.00636802 to 0.00636802
Heightened Def Con from 0.00641547 to 0.00641547
Heightened Def Con from 0.00643395 to 0.00643395
Heightened Def Con from 0.00664624 to 0.00664624
Heightened Def Con from 0.00672166 to 0.00672166
Heightened Def Con from 0.00674963 to 0.00674964
Heightened Def Con from 0.00675213 to 0.00675213
Heightened Def Con from 0.00681307 to 0.00681307
Heightened Def Con from 0.00694743 to 0.00694743
Heightened Def Con from 0.00695293 to 0.00695293
Heightened Def Con from 0.0069724 to 0.00697241
Heightened Def Con from 0.00700837 to 0.00700837
Heightened Def Con from 0.00701636 to 0.00701637
Heightened Def Con from 0.0071652 to 0.0071652
Heightened Def Con from 0.0071682 to 0.0071682
Heightened Def Con from 0.0071712 to 0.0071712
Heightened Def Con from 0.00718119 to 0.00718119
Heightened Def Con from 0.00718218 to 0.00718219
Heightened Def Con from 0.00719118 to 0.00719118
Heightened Def Con from 0.00725211 to 0.00725212
Heightened Def Con from 0.00729657 to 0.00729657
Heightened Def Con from 0.007365 to 0.00736501
Heightened Def Con from 0.00741545 to 0.00741545
Heightened Def Con from 0.00744342 to 0.00744342
Heightened Def Con from 0.00744542 to 0.00744542
Heightened Def Con from 0.00745441 to 0.00745441
Heightened Def Con from 0.0074614 to 0.0074614
Heightened Def Con from 0.00749636 to 0.00749637
Heightened Def Con from 0.00749836 to 0.00749836
Heightened Def Con from 0.00750136 to 0.00750136
Heightened Def Con from 0.00754581 to 0.00754581
Heightened Def Con from 0.0075583 to 0.0075583
Heightened Def Con from 0.0075613 to 0.0075613
Heightened Def Con from 0.00756629 to 0.0075663
Heightened Def Con from 0.00767518 to 0.00767519
Heightened Def Con from 0.00768268 to 0.00768268
