Circuit: * I:\home\dominik\Documents\Projects\MPM\mpm-hardware\breakout-board-power-measurement\ltspice\Draft3.asc


Date: Fri Apr 14 11:51:01 2023
Total elapsed time: 0.109 seconds.

tnom = 27
temp = 27
method = trap
totiter = 0
traniter = 0
tranpoints = 0
accept = 0
rejected = 0
matrix size = 5
fillins = 2
solver = Normal

